
---------- Begin Simulation Statistics ----------
simSeconds                                   0.010464                       # Number of seconds simulated (Second)
simTicks                                  10463762500                       # Number of ticks simulated (Tick)
finalTick                                 10463762500                       # Number of ticks from beginning of simulation (restored from checkpoints and never reset) (Tick)
simFreq                                  1000000000000                       # The number of ticks per simulated second ((Tick/Second))
hostSeconds                                     75.52                       # Real time elapsed on the host (Second)
hostTickRate                                138551024                       # The number of ticks simulated per host second (ticks/s) ((Tick/Second))
hostMemory                                     661644                       # Number of bytes of host memory used (Byte)
simInsts                                     10000000                       # Number of instructions simulated (Count)
simOps                                       15171534                       # Number of ops (including micro ops) simulated (Count)
hostInstRate                                   132407                       # Simulator instruction rate (inst/s) ((Count/Second))
hostOpRate                                     200881                       # Simulator op (including micro ops) rate (op/s) ((Count/Second))
system.clk_domain.clock                          1000                       # Clock period in ticks (Tick)
system.cpu.numCycles                         20927526                       # Number of cpu cycles simulated (Cycle)
system.cpu.numWorkItemsStarted                      0                       # Number of work items this cpu started (Count)
system.cpu.numWorkItemsCompleted                    0                       # Number of work items this cpu completed (Count)
system.cpu.instsAdded                        15554157                       # Number of instructions added to the IQ (excludes non-spec) (Count)
system.cpu.nonSpecInstsAdded                       59                       # Number of non-speculative instructions added to the IQ (Count)
system.cpu.instsIssued                       15538509                       # Number of instructions issued (Count)
system.cpu.squashedInstsIssued                     53                       # Number of squashed instructions issued (Count)
system.cpu.squashedInstsExamined               382673                       # Number of squashed instructions iterated over during squash; mainly for profiling (Count)
system.cpu.squashedOperandsExamined            630724                       # Number of squashed operands that are examined and possibly removed from graph (Count)
system.cpu.squashedNonSpecRemoved                   7                       # Number of squashed non-spec instructions that were removed (Count)
system.cpu.numIssuedDist::samples            20902349                       # Number of insts issued each cycle (Count)
system.cpu.numIssuedDist::mean               0.743386                       # Number of insts issued each cycle (Count)
system.cpu.numIssuedDist::stdev              1.542535                       # Number of insts issued each cycle (Count)
system.cpu.numIssuedDist::underflows                0      0.00%      0.00% # Number of insts issued each cycle (Count)
system.cpu.numIssuedDist::0                  16325124     78.10%     78.10% # Number of insts issued each cycle (Count)
system.cpu.numIssuedDist::1                    810427      3.88%     81.98% # Number of insts issued each cycle (Count)
system.cpu.numIssuedDist::2                    214439      1.03%     83.00% # Number of insts issued each cycle (Count)
system.cpu.numIssuedDist::3                    816031      3.90%     86.91% # Number of insts issued each cycle (Count)
system.cpu.numIssuedDist::4                   1972715      9.44%     96.35% # Number of insts issued each cycle (Count)
system.cpu.numIssuedDist::5                    649236      3.11%     99.45% # Number of insts issued each cycle (Count)
system.cpu.numIssuedDist::6                     86834      0.42%     99.87% # Number of insts issued each cycle (Count)
system.cpu.numIssuedDist::7                     27277      0.13%    100.00% # Number of insts issued each cycle (Count)
system.cpu.numIssuedDist::8                       266      0.00%    100.00% # Number of insts issued each cycle (Count)
system.cpu.numIssuedDist::overflows                 0      0.00%    100.00% # Number of insts issued each cycle (Count)
system.cpu.numIssuedDist::min_value                 0                       # Number of insts issued each cycle (Count)
system.cpu.numIssuedDist::max_value                 8                       # Number of insts issued each cycle (Count)
system.cpu.numIssuedDist::total              20902349                       # Number of insts issued each cycle (Count)
system.cpu.statFuBusy::No_OpClass                   0      0.00%      0.00% # attempts to use FU when none available (Count)
system.cpu.statFuBusy::IntAlu                     201      0.28%      0.28% # attempts to use FU when none available (Count)
system.cpu.statFuBusy::IntMult                      0      0.00%      0.28% # attempts to use FU when none available (Count)
system.cpu.statFuBusy::IntDiv                       0      0.00%      0.28% # attempts to use FU when none available (Count)
system.cpu.statFuBusy::FloatAdd                     0      0.00%      0.28% # attempts to use FU when none available (Count)
system.cpu.statFuBusy::FloatCmp                     0      0.00%      0.28% # attempts to use FU when none available (Count)
system.cpu.statFuBusy::FloatCvt                     0      0.00%      0.28% # attempts to use FU when none available (Count)
system.cpu.statFuBusy::FloatMult                    0      0.00%      0.28% # attempts to use FU when none available (Count)
system.cpu.statFuBusy::FloatMultAcc                 0      0.00%      0.28% # attempts to use FU when none available (Count)
system.cpu.statFuBusy::FloatDiv                     0      0.00%      0.28% # attempts to use FU when none available (Count)
system.cpu.statFuBusy::FloatMisc                    0      0.00%      0.28% # attempts to use FU when none available (Count)
system.cpu.statFuBusy::FloatSqrt                    0      0.00%      0.28% # attempts to use FU when none available (Count)
system.cpu.statFuBusy::SimdAdd                      0      0.00%      0.28% # attempts to use FU when none available (Count)
system.cpu.statFuBusy::SimdAddAcc                   0      0.00%      0.28% # attempts to use FU when none available (Count)
system.cpu.statFuBusy::SimdAlu                      0      0.00%      0.28% # attempts to use FU when none available (Count)
system.cpu.statFuBusy::SimdCmp                      0      0.00%      0.28% # attempts to use FU when none available (Count)
system.cpu.statFuBusy::SimdCvt                      0      0.00%      0.28% # attempts to use FU when none available (Count)
system.cpu.statFuBusy::SimdMisc                     0      0.00%      0.28% # attempts to use FU when none available (Count)
system.cpu.statFuBusy::SimdMult                     0      0.00%      0.28% # attempts to use FU when none available (Count)
system.cpu.statFuBusy::SimdMultAcc                  0      0.00%      0.28% # attempts to use FU when none available (Count)
system.cpu.statFuBusy::SimdShift                    0      0.00%      0.28% # attempts to use FU when none available (Count)
system.cpu.statFuBusy::SimdShiftAcc                 0      0.00%      0.28% # attempts to use FU when none available (Count)
system.cpu.statFuBusy::SimdDiv                      0      0.00%      0.28% # attempts to use FU when none available (Count)
system.cpu.statFuBusy::SimdSqrt                     0      0.00%      0.28% # attempts to use FU when none available (Count)
system.cpu.statFuBusy::SimdFloatAdd                 0      0.00%      0.28% # attempts to use FU when none available (Count)
system.cpu.statFuBusy::SimdFloatAlu                 0      0.00%      0.28% # attempts to use FU when none available (Count)
system.cpu.statFuBusy::SimdFloatCmp                 0      0.00%      0.28% # attempts to use FU when none available (Count)
system.cpu.statFuBusy::SimdFloatCvt                 0      0.00%      0.28% # attempts to use FU when none available (Count)
system.cpu.statFuBusy::SimdFloatDiv                 0      0.00%      0.28% # attempts to use FU when none available (Count)
system.cpu.statFuBusy::SimdFloatMisc                0      0.00%      0.28% # attempts to use FU when none available (Count)
system.cpu.statFuBusy::SimdFloatMult                0      0.00%      0.28% # attempts to use FU when none available (Count)
system.cpu.statFuBusy::SimdFloatMultAcc             0      0.00%      0.28% # attempts to use FU when none available (Count)
system.cpu.statFuBusy::SimdFloatSqrt                0      0.00%      0.28% # attempts to use FU when none available (Count)
system.cpu.statFuBusy::SimdReduceAdd                0      0.00%      0.28% # attempts to use FU when none available (Count)
system.cpu.statFuBusy::SimdReduceAlu                0      0.00%      0.28% # attempts to use FU when none available (Count)
system.cpu.statFuBusy::SimdReduceCmp                0      0.00%      0.28% # attempts to use FU when none available (Count)
system.cpu.statFuBusy::SimdFloatReduceAdd            0      0.00%      0.28% # attempts to use FU when none available (Count)
system.cpu.statFuBusy::SimdFloatReduceCmp            0      0.00%      0.28% # attempts to use FU when none available (Count)
system.cpu.statFuBusy::SimdAes                      0      0.00%      0.28% # attempts to use FU when none available (Count)
system.cpu.statFuBusy::SimdAesMix                   0      0.00%      0.28% # attempts to use FU when none available (Count)
system.cpu.statFuBusy::SimdSha1Hash                 0      0.00%      0.28% # attempts to use FU when none available (Count)
system.cpu.statFuBusy::SimdSha1Hash2                0      0.00%      0.28% # attempts to use FU when none available (Count)
system.cpu.statFuBusy::SimdSha256Hash               0      0.00%      0.28% # attempts to use FU when none available (Count)
system.cpu.statFuBusy::SimdSha256Hash2              0      0.00%      0.28% # attempts to use FU when none available (Count)
system.cpu.statFuBusy::SimdShaSigma2                0      0.00%      0.28% # attempts to use FU when none available (Count)
system.cpu.statFuBusy::SimdShaSigma3                0      0.00%      0.28% # attempts to use FU when none available (Count)
system.cpu.statFuBusy::SimdPredAlu                  0      0.00%      0.28% # attempts to use FU when none available (Count)
system.cpu.statFuBusy::MemRead                  70565     98.88%     99.16% # attempts to use FU when none available (Count)
system.cpu.statFuBusy::MemWrite                   599      0.84%    100.00% # attempts to use FU when none available (Count)
system.cpu.statFuBusy::FloatMemRead                 0      0.00%    100.00% # attempts to use FU when none available (Count)
system.cpu.statFuBusy::FloatMemWrite                0      0.00%    100.00% # attempts to use FU when none available (Count)
system.cpu.statFuBusy::IprAccess                    0      0.00%    100.00% # attempts to use FU when none available (Count)
system.cpu.statFuBusy::InstPrefetch                 0      0.00%    100.00% # attempts to use FU when none available (Count)
system.cpu.statIssuedInstType_0::No_OpClass            2      0.00%      0.00% # Number of instructions issued per FU type, per thread (Count)
system.cpu.statIssuedInstType_0::IntAlu       8065632     51.91%     51.91% # Number of instructions issued per FU type, per thread (Count)
system.cpu.statIssuedInstType_0::IntMult            6      0.00%     51.91% # Number of instructions issued per FU type, per thread (Count)
system.cpu.statIssuedInstType_0::IntDiv             0      0.00%     51.91% # Number of instructions issued per FU type, per thread (Count)
system.cpu.statIssuedInstType_0::FloatAdd            0      0.00%     51.91% # Number of instructions issued per FU type, per thread (Count)
system.cpu.statIssuedInstType_0::FloatCmp            0      0.00%     51.91% # Number of instructions issued per FU type, per thread (Count)
system.cpu.statIssuedInstType_0::FloatCvt            0      0.00%     51.91% # Number of instructions issued per FU type, per thread (Count)
system.cpu.statIssuedInstType_0::FloatMult            0      0.00%     51.91% # Number of instructions issued per FU type, per thread (Count)
system.cpu.statIssuedInstType_0::FloatMultAcc            0      0.00%     51.91% # Number of instructions issued per FU type, per thread (Count)
system.cpu.statIssuedInstType_0::FloatDiv            0      0.00%     51.91% # Number of instructions issued per FU type, per thread (Count)
system.cpu.statIssuedInstType_0::FloatMisc            0      0.00%     51.91% # Number of instructions issued per FU type, per thread (Count)
system.cpu.statIssuedInstType_0::FloatSqrt            0      0.00%     51.91% # Number of instructions issued per FU type, per thread (Count)
system.cpu.statIssuedInstType_0::SimdAdd            0      0.00%     51.91% # Number of instructions issued per FU type, per thread (Count)
system.cpu.statIssuedInstType_0::SimdAddAcc            0      0.00%     51.91% # Number of instructions issued per FU type, per thread (Count)
system.cpu.statIssuedInstType_0::SimdAlu            0      0.00%     51.91% # Number of instructions issued per FU type, per thread (Count)
system.cpu.statIssuedInstType_0::SimdCmp            0      0.00%     51.91% # Number of instructions issued per FU type, per thread (Count)
system.cpu.statIssuedInstType_0::SimdCvt            0      0.00%     51.91% # Number of instructions issued per FU type, per thread (Count)
system.cpu.statIssuedInstType_0::SimdMisc            0      0.00%     51.91% # Number of instructions issued per FU type, per thread (Count)
system.cpu.statIssuedInstType_0::SimdMult            0      0.00%     51.91% # Number of instructions issued per FU type, per thread (Count)
system.cpu.statIssuedInstType_0::SimdMultAcc            0      0.00%     51.91% # Number of instructions issued per FU type, per thread (Count)
system.cpu.statIssuedInstType_0::SimdShift            0      0.00%     51.91% # Number of instructions issued per FU type, per thread (Count)
system.cpu.statIssuedInstType_0::SimdShiftAcc            0      0.00%     51.91% # Number of instructions issued per FU type, per thread (Count)
system.cpu.statIssuedInstType_0::SimdDiv            0      0.00%     51.91% # Number of instructions issued per FU type, per thread (Count)
system.cpu.statIssuedInstType_0::SimdSqrt            0      0.00%     51.91% # Number of instructions issued per FU type, per thread (Count)
system.cpu.statIssuedInstType_0::SimdFloatAdd            0      0.00%     51.91% # Number of instructions issued per FU type, per thread (Count)
system.cpu.statIssuedInstType_0::SimdFloatAlu            0      0.00%     51.91% # Number of instructions issued per FU type, per thread (Count)
system.cpu.statIssuedInstType_0::SimdFloatCmp            0      0.00%     51.91% # Number of instructions issued per FU type, per thread (Count)
system.cpu.statIssuedInstType_0::SimdFloatCvt            0      0.00%     51.91% # Number of instructions issued per FU type, per thread (Count)
system.cpu.statIssuedInstType_0::SimdFloatDiv            0      0.00%     51.91% # Number of instructions issued per FU type, per thread (Count)
system.cpu.statIssuedInstType_0::SimdFloatMisc            0      0.00%     51.91% # Number of instructions issued per FU type, per thread (Count)
system.cpu.statIssuedInstType_0::SimdFloatMult            0      0.00%     51.91% # Number of instructions issued per FU type, per thread (Count)
system.cpu.statIssuedInstType_0::SimdFloatMultAcc            0      0.00%     51.91% # Number of instructions issued per FU type, per thread (Count)
system.cpu.statIssuedInstType_0::SimdFloatSqrt            0      0.00%     51.91% # Number of instructions issued per FU type, per thread (Count)
system.cpu.statIssuedInstType_0::SimdReduceAdd            0      0.00%     51.91% # Number of instructions issued per FU type, per thread (Count)
system.cpu.statIssuedInstType_0::SimdReduceAlu            0      0.00%     51.91% # Number of instructions issued per FU type, per thread (Count)
system.cpu.statIssuedInstType_0::SimdReduceCmp            0      0.00%     51.91% # Number of instructions issued per FU type, per thread (Count)
system.cpu.statIssuedInstType_0::SimdFloatReduceAdd            0      0.00%     51.91% # Number of instructions issued per FU type, per thread (Count)
system.cpu.statIssuedInstType_0::SimdFloatReduceCmp            0      0.00%     51.91% # Number of instructions issued per FU type, per thread (Count)
system.cpu.statIssuedInstType_0::SimdAes            0      0.00%     51.91% # Number of instructions issued per FU type, per thread (Count)
system.cpu.statIssuedInstType_0::SimdAesMix            0      0.00%     51.91% # Number of instructions issued per FU type, per thread (Count)
system.cpu.statIssuedInstType_0::SimdSha1Hash            0      0.00%     51.91% # Number of instructions issued per FU type, per thread (Count)
system.cpu.statIssuedInstType_0::SimdSha1Hash2            0      0.00%     51.91% # Number of instructions issued per FU type, per thread (Count)
system.cpu.statIssuedInstType_0::SimdSha256Hash            0      0.00%     51.91% # Number of instructions issued per FU type, per thread (Count)
system.cpu.statIssuedInstType_0::SimdSha256Hash2            0      0.00%     51.91% # Number of instructions issued per FU type, per thread (Count)
system.cpu.statIssuedInstType_0::SimdShaSigma2            0      0.00%     51.91% # Number of instructions issued per FU type, per thread (Count)
system.cpu.statIssuedInstType_0::SimdShaSigma3            0      0.00%     51.91% # Number of instructions issued per FU type, per thread (Count)
system.cpu.statIssuedInstType_0::SimdPredAlu            0      0.00%     51.91% # Number of instructions issued per FU type, per thread (Count)
system.cpu.statIssuedInstType_0::MemRead      1973370     12.70%     64.61% # Number of instructions issued per FU type, per thread (Count)
system.cpu.statIssuedInstType_0::MemWrite      5499499     35.39%    100.00% # Number of instructions issued per FU type, per thread (Count)
system.cpu.statIssuedInstType_0::FloatMemRead            0      0.00%    100.00% # Number of instructions issued per FU type, per thread (Count)
system.cpu.statIssuedInstType_0::FloatMemWrite            0      0.00%    100.00% # Number of instructions issued per FU type, per thread (Count)
system.cpu.statIssuedInstType_0::IprAccess            0      0.00%    100.00% # Number of instructions issued per FU type, per thread (Count)
system.cpu.statIssuedInstType_0::InstPrefetch            0      0.00%    100.00% # Number of instructions issued per FU type, per thread (Count)
system.cpu.statIssuedInstType_0::total       15538509                       # Number of instructions issued per FU type, per thread (Count)
system.cpu.issueRate                         0.742491                       # Inst issue rate ((Count/Cycle))
system.cpu.fuBusy                               71365                       # FU busy when requested (Count)
system.cpu.fuBusyRate                        0.004593                       # FU busy rate (busy events/executed inst) ((Count/Count))
system.cpu.intInstQueueReads                 52050781                       # Number of integer instruction queue reads (Count)
system.cpu.intInstQueueWrites                15936983                       # Number of integer instruction queue writes (Count)
system.cpu.intInstQueueWakeupAccesses        15444228                       # Number of integer instruction queue wakeup accesses (Count)
system.cpu.fpInstQueueReads                         0                       # Number of floating instruction queue reads (Count)
system.cpu.fpInstQueueWrites                        0                       # Number of floating instruction queue writes (Count)
system.cpu.fpInstQueueWakeupAccesses                0                       # Number of floating instruction queue wakeup accesses (Count)
system.cpu.vecInstQueueReads                        0                       # Number of vector instruction queue reads (Count)
system.cpu.vecInstQueueWrites                       0                       # Number of vector instruction queue writes (Count)
system.cpu.vecInstQueueWakeupAccesses               0                       # Number of vector instruction queue wakeup accesses (Count)
system.cpu.intAluAccesses                    15609872                       # Number of integer alu accesses (Count)
system.cpu.fpAluAccesses                            0                       # Number of floating point alu accesses (Count)
system.cpu.vecAluAccesses                           0                       # Number of vector alu accesses (Count)
system.cpu.idleCycles                               0                       # Number of cycles IEW is idle (Cycle)
system.cpu.squashCycles                          6473                       # Number of cycles IEW is squashing (Cycle)
system.cpu.blockCycles                          27518                       # Number of cycles IEW is blocking (Cycle)
system.cpu.unblockCycles                       385294                       # Number of cycles IEW is unblocking (Cycle)
system.cpu.dispatchedInsts                   15554216                       # Number of instructions dispatched to IQ (Count)
system.cpu.dispSquashedInsts                      239                       # Number of squashed instructions skipped by dispatch (Count)
system.cpu.dispLoadInsts                      1974593                       # Number of dispatched load instructions (Count)
system.cpu.dispStoreInsts                     5501993                       # Number of dispatched store instructions (Count)
system.cpu.dispNonSpecInsts                        39                       # Number of dispatched non-speculative instructions (Count)
system.cpu.iqFullEvents                           155                       # Number of times the IQ has become full, causing a stall (Count)
system.cpu.lsqFullEvents                       384811                       # Number of times the LSQ has become full, causing a stall (Count)
system.cpu.memOrderViolationEvents                 99                       # Number of memory order violations (Count)
system.cpu.predictedTakenIncorrect                793                       # Number of branches that were predicted taken incorrectly (Count)
system.cpu.predictedNotTakenIncorrect             604                       # Number of branches that were predicted not taken incorrectly (Count)
system.cpu.branchMispredicts                     1397                       # Number of branch mispredicts detected at execute (Count)
system.cpu.numInsts                          15536792                       # Number of executed instructions (Count)
system.cpu.numLoadInsts                       1972606                       # Number of load instructions executed (Count)
system.cpu.numSquashedInsts                      1713                       # Number of squashed instructions skipped in execute (Count)
system.cpu.numSwp                                   0                       # Number of swp insts executed (Count)
system.cpu.numNop                                   0                       # Number of nop insts executed (Count)
system.cpu.numRefs                            7471960                       # Number of memory reference insts executed (Count)
system.cpu.numBranches                         709932                       # Number of branches executed (Count)
system.cpu.numStoreInsts                      5499354                       # Number of stores executed (Count)
system.cpu.numRate                           0.742409                       # Inst execution rate ((Count/Cycle))
system.cpu.instsToCommit                     15534063                       # Cumulative count of insts sent to commit (Count)
system.cpu.writebackCount                    15444228                       # Cumulative count of insts written-back (Count)
system.cpu.producerInst                       8792710                       # Number of instructions producing a value (Count)
system.cpu.consumerInst                      31635036                       # Number of instructions consuming a value (Count)
system.cpu.wbRate                            0.737986                       # Insts written-back per cycle ((Count/Cycle))
system.cpu.wbFanout                          0.277942                       # Average fanout of values written-back ((Count/Count))
system.cpu.timesIdled                             317                       # Number of times that the entire CPU went into an idle state and unscheduled itself (Count)
system.cpu.idleCycles                           25177                       # Total number of cycles that the CPU has spent unscheduled due to idling (Cycle)
system.cpu.committedInsts                    10000000                       # Number of Instructions Simulated (Count)
system.cpu.committedOps                      15171534                       # Number of Ops (including micro ops) Simulated (Count)
system.cpu.cpi                               2.092753                       # CPI: Cycles Per Instruction ((Cycle/Count))
system.cpu.totalCpi                          2.092753                       # CPI: Total CPI of All Threads ((Cycle/Count))
system.cpu.ipc                               0.477840                       # IPC: Instructions Per Cycle ((Count/Cycle))
system.cpu.totalIpc                          0.477840                       # IPC: Total IPC of All Threads ((Count/Cycle))
system.cpu.intRegfileReads                   21277955                       # Number of integer regfile reads (Count)
system.cpu.intRegfileWrites                   9072072                       # Number of integer regfile writes (Count)
system.cpu.vecRegfileReads                         16                       # number of vector regfile reads (Count)
system.cpu.ccRegfileReads                    52519615                       # number of cc regfile reads (Count)
system.cpu.ccRegfileWrites                    8757968                       # number of cc regfile writes (Count)
system.cpu.miscRegfileReads                  30769344                       # number of misc regfile reads (Count)
system.cpu.miscRegfileWrites                       81                       # number of misc regfile writes (Count)
system.cpu.MemDepUnit__0.insertedLoads        1974593                       # Number of loads inserted to the mem dependence unit. (Count)
system.cpu.MemDepUnit__0.insertedStores       5501993                       # Number of stores inserted to the mem dependence unit. (Count)
system.cpu.MemDepUnit__0.conflictingLoads       153370                       # Number of conflicting loads. (Count)
system.cpu.MemDepUnit__0.conflictingStores        22746                       # Number of conflicting stores. (Count)
system.cpu.MemDepUnit__1.insertedLoads              0                       # Number of loads inserted to the mem dependence unit. (Count)
system.cpu.MemDepUnit__1.insertedStores             0                       # Number of stores inserted to the mem dependence unit. (Count)
system.cpu.MemDepUnit__1.conflictingLoads            0                       # Number of conflicting loads. (Count)
system.cpu.MemDepUnit__1.conflictingStores            0                       # Number of conflicting stores. (Count)
system.cpu.MemDepUnit__2.insertedLoads              0                       # Number of loads inserted to the mem dependence unit. (Count)
system.cpu.MemDepUnit__2.insertedStores             0                       # Number of stores inserted to the mem dependence unit. (Count)
system.cpu.MemDepUnit__2.conflictingLoads            0                       # Number of conflicting loads. (Count)
system.cpu.MemDepUnit__2.conflictingStores            0                       # Number of conflicting stores. (Count)
system.cpu.MemDepUnit__3.insertedLoads              0                       # Number of loads inserted to the mem dependence unit. (Count)
system.cpu.MemDepUnit__3.insertedStores             0                       # Number of stores inserted to the mem dependence unit. (Count)
system.cpu.MemDepUnit__3.conflictingLoads            0                       # Number of conflicting loads. (Count)
system.cpu.MemDepUnit__3.conflictingStores            0                       # Number of conflicting stores. (Count)
system.cpu.branchPred.lookups                  734226                       # Number of BP lookups (Count)
system.cpu.branchPred.condPredicted            726603                       # Number of conditional branches predicted (Count)
system.cpu.branchPred.condIncorrect              1566                       # Number of conditional branches incorrect (Count)
system.cpu.branchPred.BTBLookups               727822                       # Number of BTB lookups (Count)
system.cpu.branchPred.BTBHits                  727298                       # Number of BTB hits (Count)
system.cpu.branchPred.BTBMissPct             0.000720                       # BTB Miss Percentage (Ratio)
system.cpu.branchPred.BTBHitRatio            0.999280                       # BTB Hit Ratio (Ratio)
system.cpu.branchPred.RASUsed                    2454                       # Number of times the RAS was used to get a target. (Count)
system.cpu.branchPred.RASIncorrect                 45                       # Number of incorrect RAS predictions. (Count)
system.cpu.branchPred.indirectLookups             244                       # Number of indirect predictor lookups. (Count)
system.cpu.branchPred.indirectHits                 27                       # Number of indirect target hits. (Count)
system.cpu.branchPred.indirectMisses              217                       # Number of indirect misses. (Count)
system.cpu.branchPred.indirectMispredicted           63                       # Number of mispredicted indirect branches. (Count)
system.cpu.commit.commitSquashedInsts          235305                       # The number of squashed insts skipped by commit (Count)
system.cpu.commit.commitNonSpecStalls              52                       # The number of times commit has been forced to stall to communicate backwards (Count)
system.cpu.commit.branchMispredicts              1326                       # The number of times a branch was mispredicted (Count)
system.cpu.commit.numCommittedDist::samples     20871999                       # Number of insts commited each cycle (Count)
system.cpu.commit.numCommittedDist::mean     0.726885                       # Number of insts commited each cycle (Count)
system.cpu.commit.numCommittedDist::stdev     1.676513                       # Number of insts commited each cycle (Count)
system.cpu.commit.numCommittedDist::underflows            0      0.00%      0.00% # Number of insts commited each cycle (Count)
system.cpu.commit.numCommittedDist::0        16603813     79.55%     79.55% # Number of insts commited each cycle (Count)
system.cpu.commit.numCommittedDist::1         1020663      4.89%     84.44% # Number of insts commited each cycle (Count)
system.cpu.commit.numCommittedDist::2          112246      0.54%     84.98% # Number of insts commited each cycle (Count)
system.cpu.commit.numCommittedDist::3          604769      2.90%     87.88% # Number of insts commited each cycle (Count)
system.cpu.commit.numCommittedDist::4         1661529      7.96%     95.84% # Number of insts commited each cycle (Count)
system.cpu.commit.numCommittedDist::5          475418      2.28%     98.11% # Number of insts commited each cycle (Count)
system.cpu.commit.numCommittedDist::6            8360      0.04%     98.15% # Number of insts commited each cycle (Count)
system.cpu.commit.numCommittedDist::7           42902      0.21%     98.36% # Number of insts commited each cycle (Count)
system.cpu.commit.numCommittedDist::8          342299      1.64%    100.00% # Number of insts commited each cycle (Count)
system.cpu.commit.numCommittedDist::overflows            0      0.00%    100.00% # Number of insts commited each cycle (Count)
system.cpu.commit.numCommittedDist::min_value            0                       # Number of insts commited each cycle (Count)
system.cpu.commit.numCommittedDist::max_value            8                       # Number of insts commited each cycle (Count)
system.cpu.commit.numCommittedDist::total     20871999                       # Number of insts commited each cycle (Count)
system.cpu.commit.instsCommitted             10000000                       # Number of instructions committed (Count)
system.cpu.commit.opsCommitted               15171534                       # Number of ops (including micro ops) committed (Count)
system.cpu.commit.memRefs                     7297693                       # Number of memory references committed (Count)
system.cpu.commit.loads                       1965036                       # Number of loads committed (Count)
system.cpu.commit.amos                              0                       # Number of atomic instructions committed (Count)
system.cpu.commit.membars                          20                       # Number of memory barriers committed (Count)
system.cpu.commit.branches                     688478                       # Number of branches committed (Count)
system.cpu.commit.vectorInstructions                0                       # Number of committed Vector instructions. (Count)
system.cpu.commit.floating                          0                       # Number of committed floating point instructions. (Count)
system.cpu.commit.integer                    14487576                       # Number of committed integer instructions. (Count)
system.cpu.commit.functionCalls                  2204                       # Number of function calls committed. (Count)
system.cpu.commit.committedInstType_0::No_OpClass            0      0.00%      0.00% # Class of committed instruction (Count)
system.cpu.commit.committedInstType_0::IntAlu      7873835     51.90%     51.90% # Class of committed instruction (Count)
system.cpu.commit.committedInstType_0::IntMult            6      0.00%     51.90% # Class of committed instruction (Count)
system.cpu.commit.committedInstType_0::IntDiv            0      0.00%     51.90% # Class of committed instruction (Count)
system.cpu.commit.committedInstType_0::FloatAdd            0      0.00%     51.90% # Class of committed instruction (Count)
system.cpu.commit.committedInstType_0::FloatCmp            0      0.00%     51.90% # Class of committed instruction (Count)
system.cpu.commit.committedInstType_0::FloatCvt            0      0.00%     51.90% # Class of committed instruction (Count)
system.cpu.commit.committedInstType_0::FloatMult            0      0.00%     51.90% # Class of committed instruction (Count)
system.cpu.commit.committedInstType_0::FloatMultAcc            0      0.00%     51.90% # Class of committed instruction (Count)
system.cpu.commit.committedInstType_0::FloatDiv            0      0.00%     51.90% # Class of committed instruction (Count)
system.cpu.commit.committedInstType_0::FloatMisc            0      0.00%     51.90% # Class of committed instruction (Count)
system.cpu.commit.committedInstType_0::FloatSqrt            0      0.00%     51.90% # Class of committed instruction (Count)
system.cpu.commit.committedInstType_0::SimdAdd            0      0.00%     51.90% # Class of committed instruction (Count)
system.cpu.commit.committedInstType_0::SimdAddAcc            0      0.00%     51.90% # Class of committed instruction (Count)
system.cpu.commit.committedInstType_0::SimdAlu            0      0.00%     51.90% # Class of committed instruction (Count)
system.cpu.commit.committedInstType_0::SimdCmp            0      0.00%     51.90% # Class of committed instruction (Count)
system.cpu.commit.committedInstType_0::SimdCvt            0      0.00%     51.90% # Class of committed instruction (Count)
system.cpu.commit.committedInstType_0::SimdMisc            0      0.00%     51.90% # Class of committed instruction (Count)
system.cpu.commit.committedInstType_0::SimdMult            0      0.00%     51.90% # Class of committed instruction (Count)
system.cpu.commit.committedInstType_0::SimdMultAcc            0      0.00%     51.90% # Class of committed instruction (Count)
system.cpu.commit.committedInstType_0::SimdShift            0      0.00%     51.90% # Class of committed instruction (Count)
system.cpu.commit.committedInstType_0::SimdShiftAcc            0      0.00%     51.90% # Class of committed instruction (Count)
system.cpu.commit.committedInstType_0::SimdDiv            0      0.00%     51.90% # Class of committed instruction (Count)
system.cpu.commit.committedInstType_0::SimdSqrt            0      0.00%     51.90% # Class of committed instruction (Count)
system.cpu.commit.committedInstType_0::SimdFloatAdd            0      0.00%     51.90% # Class of committed instruction (Count)
system.cpu.commit.committedInstType_0::SimdFloatAlu            0      0.00%     51.90% # Class of committed instruction (Count)
system.cpu.commit.committedInstType_0::SimdFloatCmp            0      0.00%     51.90% # Class of committed instruction (Count)
system.cpu.commit.committedInstType_0::SimdFloatCvt            0      0.00%     51.90% # Class of committed instruction (Count)
system.cpu.commit.committedInstType_0::SimdFloatDiv            0      0.00%     51.90% # Class of committed instruction (Count)
system.cpu.commit.committedInstType_0::SimdFloatMisc            0      0.00%     51.90% # Class of committed instruction (Count)
system.cpu.commit.committedInstType_0::SimdFloatMult            0      0.00%     51.90% # Class of committed instruction (Count)
system.cpu.commit.committedInstType_0::SimdFloatMultAcc            0      0.00%     51.90% # Class of committed instruction (Count)
system.cpu.commit.committedInstType_0::SimdFloatSqrt            0      0.00%     51.90% # Class of committed instruction (Count)
system.cpu.commit.committedInstType_0::SimdReduceAdd            0      0.00%     51.90% # Class of committed instruction (Count)
system.cpu.commit.committedInstType_0::SimdReduceAlu            0      0.00%     51.90% # Class of committed instruction (Count)
system.cpu.commit.committedInstType_0::SimdReduceCmp            0      0.00%     51.90% # Class of committed instruction (Count)
system.cpu.commit.committedInstType_0::SimdFloatReduceAdd            0      0.00%     51.90% # Class of committed instruction (Count)
system.cpu.commit.committedInstType_0::SimdFloatReduceCmp            0      0.00%     51.90% # Class of committed instruction (Count)
system.cpu.commit.committedInstType_0::SimdAes            0      0.00%     51.90% # Class of committed instruction (Count)
system.cpu.commit.committedInstType_0::SimdAesMix            0      0.00%     51.90% # Class of committed instruction (Count)
system.cpu.commit.committedInstType_0::SimdSha1Hash            0      0.00%     51.90% # Class of committed instruction (Count)
system.cpu.commit.committedInstType_0::SimdSha1Hash2            0      0.00%     51.90% # Class of committed instruction (Count)
system.cpu.commit.committedInstType_0::SimdSha256Hash            0      0.00%     51.90% # Class of committed instruction (Count)
system.cpu.commit.committedInstType_0::SimdSha256Hash2            0      0.00%     51.90% # Class of committed instruction (Count)
system.cpu.commit.committedInstType_0::SimdShaSigma2            0      0.00%     51.90% # Class of committed instruction (Count)
system.cpu.commit.committedInstType_0::SimdShaSigma3            0      0.00%     51.90% # Class of committed instruction (Count)
system.cpu.commit.committedInstType_0::SimdPredAlu            0      0.00%     51.90% # Class of committed instruction (Count)
system.cpu.commit.committedInstType_0::MemRead      1965036     12.95%     64.85% # Class of committed instruction (Count)
system.cpu.commit.committedInstType_0::MemWrite      5332657     35.15%    100.00% # Class of committed instruction (Count)
system.cpu.commit.committedInstType_0::FloatMemRead            0      0.00%    100.00% # Class of committed instruction (Count)
system.cpu.commit.committedInstType_0::FloatMemWrite            0      0.00%    100.00% # Class of committed instruction (Count)
system.cpu.commit.committedInstType_0::IprAccess            0      0.00%    100.00% # Class of committed instruction (Count)
system.cpu.commit.committedInstType_0::InstPrefetch            0      0.00%    100.00% # Class of committed instruction (Count)
system.cpu.commit.committedInstType_0::total     15171534                       # Class of committed instruction (Count)
system.cpu.commit.commitEligibleSamples        342299                       # number cycles where commit BW limit reached (Cycle)
system.cpu.dcache.demandHits::cpu.data        2303983                       # number of demand (read+write) hits (Count)
system.cpu.dcache.demandHits::total           2303983                       # number of demand (read+write) hits (Count)
system.cpu.dcache.overallHits::cpu.data       2303983                       # number of overall hits (Count)
system.cpu.dcache.overallHits::total          2303983                       # number of overall hits (Count)
system.cpu.dcache.demandMisses::cpu.data      4816733                       # number of demand (read+write) misses (Count)
system.cpu.dcache.demandMisses::total         4816733                       # number of demand (read+write) misses (Count)
system.cpu.dcache.overallMisses::cpu.data      4816733                       # number of overall misses (Count)
system.cpu.dcache.overallMisses::total        4816733                       # number of overall misses (Count)
system.cpu.dcache.demandMissLatency::cpu.data 278321738478                       # number of demand (read+write) miss ticks (Tick)
system.cpu.dcache.demandMissLatency::total 278321738478                       # number of demand (read+write) miss ticks (Tick)
system.cpu.dcache.overallMissLatency::cpu.data 278321738478                       # number of overall miss ticks (Tick)
system.cpu.dcache.overallMissLatency::total 278321738478                       # number of overall miss ticks (Tick)
system.cpu.dcache.demandAccesses::cpu.data      7120716                       # number of demand (read+write) accesses (Count)
system.cpu.dcache.demandAccesses::total       7120716                       # number of demand (read+write) accesses (Count)
system.cpu.dcache.overallAccesses::cpu.data      7120716                       # number of overall (read+write) accesses (Count)
system.cpu.dcache.overallAccesses::total      7120716                       # number of overall (read+write) accesses (Count)
system.cpu.dcache.demandMissRate::cpu.data     0.676439                       # miss rate for demand accesses (Ratio)
system.cpu.dcache.demandMissRate::total      0.676439                       # miss rate for demand accesses (Ratio)
system.cpu.dcache.overallMissRate::cpu.data     0.676439                       # miss rate for overall accesses (Ratio)
system.cpu.dcache.overallMissRate::total     0.676439                       # miss rate for overall accesses (Ratio)
system.cpu.dcache.demandAvgMissLatency::cpu.data 57782.264136                       # average overall miss latency ((Cycle/Count))
system.cpu.dcache.demandAvgMissLatency::total 57782.264136                       # average overall miss latency ((Cycle/Count))
system.cpu.dcache.overallAvgMissLatency::cpu.data 57782.264136                       # average overall miss latency ((Cycle/Count))
system.cpu.dcache.overallAvgMissLatency::total 57782.264136                       # average overall miss latency ((Cycle/Count))
system.cpu.dcache.blockedCycles::no_mshrs         8514                       # number of cycles access was blocked (Cycle)
system.cpu.dcache.blockedCycles::no_targets            0                       # number of cycles access was blocked (Cycle)
system.cpu.dcache.blockedCauses::no_mshrs          124                       # number of times access was blocked (Count)
system.cpu.dcache.blockedCauses::no_targets            0                       # number of times access was blocked (Count)
system.cpu.dcache.avgBlocked::no_mshrs      68.661290                       # average number of cycles each access was blocked ((Cycle/Count))
system.cpu.dcache.avgBlocked::no_targets          nan                       # average number of cycles each access was blocked ((Cycle/Count))
system.cpu.dcache.writebacks::writebacks       324366                       # number of writebacks (Count)
system.cpu.dcache.writebacks::total            324366                       # number of writebacks (Count)
system.cpu.dcache.demandMshrHits::cpu.data      4491137                       # number of demand (read+write) MSHR hits (Count)
system.cpu.dcache.demandMshrHits::total       4491137                       # number of demand (read+write) MSHR hits (Count)
system.cpu.dcache.overallMshrHits::cpu.data      4491137                       # number of overall MSHR hits (Count)
system.cpu.dcache.overallMshrHits::total      4491137                       # number of overall MSHR hits (Count)
system.cpu.dcache.demandMshrMisses::cpu.data       325596                       # number of demand (read+write) MSHR misses (Count)
system.cpu.dcache.demandMshrMisses::total       325596                       # number of demand (read+write) MSHR misses (Count)
system.cpu.dcache.overallMshrMisses::cpu.data       325596                       # number of overall MSHR misses (Count)
system.cpu.dcache.overallMshrMisses::total       325596                       # number of overall MSHR misses (Count)
system.cpu.dcache.demandMshrMissLatency::cpu.data  23710340486                       # number of demand (read+write) MSHR miss ticks (Tick)
system.cpu.dcache.demandMshrMissLatency::total  23710340486                       # number of demand (read+write) MSHR miss ticks (Tick)
system.cpu.dcache.overallMshrMissLatency::cpu.data  23710340486                       # number of overall MSHR miss ticks (Tick)
system.cpu.dcache.overallMshrMissLatency::total  23710340486                       # number of overall MSHR miss ticks (Tick)
system.cpu.dcache.demandMshrMissRate::cpu.data     0.045725                       # mshr miss ratio for demand accesses (Ratio)
system.cpu.dcache.demandMshrMissRate::total     0.045725                       # mshr miss ratio for demand accesses (Ratio)
system.cpu.dcache.overallMshrMissRate::cpu.data     0.045725                       # mshr miss ratio for overall accesses (Ratio)
system.cpu.dcache.overallMshrMissRate::total     0.045725                       # mshr miss ratio for overall accesses (Ratio)
system.cpu.dcache.demandAvgMshrMissLatency::cpu.data 72821.350649                       # average overall mshr miss latency ((Cycle/Count))
system.cpu.dcache.demandAvgMshrMissLatency::total 72821.350649                       # average overall mshr miss latency ((Cycle/Count))
system.cpu.dcache.overallAvgMshrMissLatency::cpu.data 72821.350649                       # average overall mshr miss latency ((Cycle/Count))
system.cpu.dcache.overallAvgMshrMissLatency::total 72821.350649                       # average overall mshr miss latency ((Cycle/Count))
system.cpu.dcache.replacements                 324571                       # number of replacements (Count)
system.cpu.dcache.LoadLockedReq.hits::cpu.data           23                       # number of LoadLockedReq hits (Count)
system.cpu.dcache.LoadLockedReq.hits::total           23                       # number of LoadLockedReq hits (Count)
system.cpu.dcache.LoadLockedReq.accesses::cpu.data           23                       # number of LoadLockedReq accesses(hits+misses) (Count)
system.cpu.dcache.LoadLockedReq.accesses::total           23                       # number of LoadLockedReq accesses(hits+misses) (Count)
system.cpu.dcache.ReadReq.hits::cpu.data      1787739                       # number of ReadReq hits (Count)
system.cpu.dcache.ReadReq.hits::total         1787739                       # number of ReadReq hits (Count)
system.cpu.dcache.ReadReq.misses::cpu.data          467                       # number of ReadReq misses (Count)
system.cpu.dcache.ReadReq.misses::total           467                       # number of ReadReq misses (Count)
system.cpu.dcache.ReadReq.missLatency::cpu.data     31092000                       # number of ReadReq miss ticks (Tick)
system.cpu.dcache.ReadReq.missLatency::total     31092000                       # number of ReadReq miss ticks (Tick)
system.cpu.dcache.ReadReq.accesses::cpu.data      1788206                       # number of ReadReq accesses(hits+misses) (Count)
system.cpu.dcache.ReadReq.accesses::total      1788206                       # number of ReadReq accesses(hits+misses) (Count)
system.cpu.dcache.ReadReq.missRate::cpu.data     0.000261                       # miss rate for ReadReq accesses (Ratio)
system.cpu.dcache.ReadReq.missRate::total     0.000261                       # miss rate for ReadReq accesses (Ratio)
system.cpu.dcache.ReadReq.avgMissLatency::cpu.data 66578.158458                       # average ReadReq miss latency ((Tick/Count))
system.cpu.dcache.ReadReq.avgMissLatency::total 66578.158458                       # average ReadReq miss latency ((Tick/Count))
system.cpu.dcache.ReadReq.mshrHits::cpu.data          246                       # number of ReadReq MSHR hits (Count)
system.cpu.dcache.ReadReq.mshrHits::total          246                       # number of ReadReq MSHR hits (Count)
system.cpu.dcache.ReadReq.mshrMisses::cpu.data          221                       # number of ReadReq MSHR misses (Count)
system.cpu.dcache.ReadReq.mshrMisses::total          221                       # number of ReadReq MSHR misses (Count)
system.cpu.dcache.ReadReq.mshrMissLatency::cpu.data     15636500                       # number of ReadReq MSHR miss ticks (Tick)
system.cpu.dcache.ReadReq.mshrMissLatency::total     15636500                       # number of ReadReq MSHR miss ticks (Tick)
system.cpu.dcache.ReadReq.mshrMissRate::cpu.data     0.000124                       # mshr miss rate for ReadReq accesses (Ratio)
system.cpu.dcache.ReadReq.mshrMissRate::total     0.000124                       # mshr miss rate for ReadReq accesses (Ratio)
system.cpu.dcache.ReadReq.avgMshrMissLatency::cpu.data 70753.393665                       # average ReadReq mshr miss latency ((Tick/Count))
system.cpu.dcache.ReadReq.avgMshrMissLatency::total 70753.393665                       # average ReadReq mshr miss latency ((Tick/Count))
system.cpu.dcache.StoreCondReq.hits::cpu.data           20                       # number of StoreCondReq hits (Count)
system.cpu.dcache.StoreCondReq.hits::total           20                       # number of StoreCondReq hits (Count)
system.cpu.dcache.StoreCondReq.accesses::cpu.data           20                       # number of StoreCondReq accesses(hits+misses) (Count)
system.cpu.dcache.StoreCondReq.accesses::total           20                       # number of StoreCondReq accesses(hits+misses) (Count)
system.cpu.dcache.WriteReq.hits::cpu.data       516244                       # number of WriteReq hits (Count)
system.cpu.dcache.WriteReq.hits::total         516244                       # number of WriteReq hits (Count)
system.cpu.dcache.WriteReq.misses::cpu.data      4816266                       # number of WriteReq misses (Count)
system.cpu.dcache.WriteReq.misses::total      4816266                       # number of WriteReq misses (Count)
system.cpu.dcache.WriteReq.missLatency::cpu.data 278290646478                       # number of WriteReq miss ticks (Tick)
system.cpu.dcache.WriteReq.missLatency::total 278290646478                       # number of WriteReq miss ticks (Tick)
system.cpu.dcache.WriteReq.accesses::cpu.data      5332510                       # number of WriteReq accesses(hits+misses) (Count)
system.cpu.dcache.WriteReq.accesses::total      5332510                       # number of WriteReq accesses(hits+misses) (Count)
system.cpu.dcache.WriteReq.missRate::cpu.data     0.903189                       # miss rate for WriteReq accesses (Ratio)
system.cpu.dcache.WriteReq.missRate::total     0.903189                       # miss rate for WriteReq accesses (Ratio)
system.cpu.dcache.WriteReq.avgMissLatency::cpu.data 57781.411259                       # average WriteReq miss latency ((Tick/Count))
system.cpu.dcache.WriteReq.avgMissLatency::total 57781.411259                       # average WriteReq miss latency ((Tick/Count))
system.cpu.dcache.WriteReq.mshrHits::cpu.data      4490891                       # number of WriteReq MSHR hits (Count)
system.cpu.dcache.WriteReq.mshrHits::total      4490891                       # number of WriteReq MSHR hits (Count)
system.cpu.dcache.WriteReq.mshrMisses::cpu.data       325375                       # number of WriteReq MSHR misses (Count)
system.cpu.dcache.WriteReq.mshrMisses::total       325375                       # number of WriteReq MSHR misses (Count)
system.cpu.dcache.WriteReq.mshrMissLatency::cpu.data  23694703986                       # number of WriteReq MSHR miss ticks (Tick)
system.cpu.dcache.WriteReq.mshrMissLatency::total  23694703986                       # number of WriteReq MSHR miss ticks (Tick)
system.cpu.dcache.WriteReq.mshrMissRate::cpu.data     0.061017                       # mshr miss rate for WriteReq accesses (Ratio)
system.cpu.dcache.WriteReq.mshrMissRate::total     0.061017                       # mshr miss rate for WriteReq accesses (Ratio)
system.cpu.dcache.WriteReq.avgMshrMissLatency::cpu.data 72822.755239                       # average WriteReq mshr miss latency ((Tick/Count))
system.cpu.dcache.WriteReq.avgMshrMissLatency::total 72822.755239                       # average WriteReq mshr miss latency ((Tick/Count))
system.cpu.dcache.power_state.pwrStateResidencyTicks::UNDEFINED  10463762500                       # Cumulative time (in ticks) in various power states (Tick)
system.cpu.dcache.tags.tagsInUse          1018.927380                       # Average ticks per tags in use ((Tick/Count))
system.cpu.dcache.tags.totalRefs              2629621                       # Total number of references to valid blocks. (Count)
system.cpu.dcache.tags.sampledRefs             325595                       # Sample count of references to valid blocks. (Count)
system.cpu.dcache.tags.avgRefs               8.076356                       # Average number of references to valid blocks. ((Count/Count))
system.cpu.dcache.tags.warmupTick              164000                       # The tick when the warmup percentage was hit. (Tick)
system.cpu.dcache.tags.occupancies::cpu.data  1018.927380                       # Average occupied blocks per tick, per requestor ((Count/Tick))
system.cpu.dcache.tags.avgOccs::cpu.data     0.995046                       # Average percentage of cache occupancy ((Ratio/Tick))
system.cpu.dcache.tags.avgOccs::total        0.995046                       # Average percentage of cache occupancy ((Ratio/Tick))
system.cpu.dcache.tags.occupanciesTaskId::1024         1024                       # Occupied blocks per task id (Count)
system.cpu.dcache.tags.ageTaskId_1024::0          332                       # Occupied blocks per task id, per block age (Count)
system.cpu.dcache.tags.ageTaskId_1024::1          692                       # Occupied blocks per task id, per block age (Count)
system.cpu.dcache.tags.ratioOccsTaskId::1024            1                       # Ratio of occupied blocks and all blocks, per task id (Ratio)
system.cpu.dcache.tags.tagAccesses           14567113                       # Number of tag accesses (Count)
system.cpu.dcache.tags.dataAccesses          14567113                       # Number of data accesses (Count)
system.cpu.dcache.tags.power_state.pwrStateResidencyTicks::UNDEFINED  10463762500                       # Cumulative time (in ticks) in various power states (Tick)
system.cpu.decode.idleCycles                   454578                       # Number of cycles decode is idle (Cycle)
system.cpu.decode.blockedCycles              18476018                       # Number of cycles decode is blocked (Cycle)
system.cpu.decode.runCycles                   1055413                       # Number of cycles decode is running (Cycle)
system.cpu.decode.unblockCycles                909867                       # Number of cycles decode is unblocking (Cycle)
system.cpu.decode.squashCycles                   6473                       # Number of cycles decode is squashing (Cycle)
system.cpu.decode.branchResolved               711867                       # Number of times decode resolved a branch (Count)
system.cpu.decode.branchMispred                   248                       # Number of times decode detected a branch misprediction (Count)
system.cpu.decode.decodedInsts               15642184                       # Number of instructions handled by decode (Count)
system.cpu.decode.squashedInsts                   998                       # Number of squashed instructions handled by decode (Count)
system.cpu.fetch.icacheStallCycles             305507                       # Number of cycles fetch is stalled on an Icache miss (Cycle)
system.cpu.fetch.insts                       10413200                       # Number of instructions fetch has processed (Count)
system.cpu.fetch.branches                      734226                       # Number of branches that fetch encountered (Count)
system.cpu.fetch.predictedBranches             729779                       # Number of branches that fetch has predicted taken (Count)
system.cpu.fetch.cycles                      20590054                       # Number of cycles fetch has run and was not squashing or blocked (Cycle)
system.cpu.fetch.squashCycles                   13430                       # Number of cycles fetch has spent squashing (Cycle)
system.cpu.fetch.miscStallCycles                    7                       # Number of cycles fetch has spent waiting on interrupts, or bad addresses, or out of MSHRs (Cycle)
system.cpu.fetch.pendingTrapStallCycles            13                       # Number of stall cycles due to pending traps (Cycle)
system.cpu.fetch.icacheWaitRetryStallCycles           53                       # Number of stall cycles due to full MSHR (Cycle)
system.cpu.fetch.cacheLines                    296261                       # Number of cache lines fetched (Count)
system.cpu.fetch.icacheSquashes                   625                       # Number of outstanding Icache misses that were squashed (Count)
system.cpu.fetch.nisnDist::samples           20902349                       # Number of instructions fetched each cycle (Total) (Count)
system.cpu.fetch.nisnDist::mean              0.760684                       # Number of instructions fetched each cycle (Total) (Count)
system.cpu.fetch.nisnDist::stdev             2.212497                       # Number of instructions fetched each cycle (Total) (Count)
system.cpu.fetch.nisnDist::underflows               0      0.00%      0.00% # Number of instructions fetched each cycle (Total) (Count)
system.cpu.fetch.nisnDist::0                 18199980     87.07%     87.07% # Number of instructions fetched each cycle (Total) (Count)
system.cpu.fetch.nisnDist::1                   449743      2.15%     89.22% # Number of instructions fetched each cycle (Total) (Count)
system.cpu.fetch.nisnDist::2                   103862      0.50%     89.72% # Number of instructions fetched each cycle (Total) (Count)
system.cpu.fetch.nisnDist::3                   118517      0.57%     90.29% # Number of instructions fetched each cycle (Total) (Count)
system.cpu.fetch.nisnDist::4                   146450      0.70%     90.99% # Number of instructions fetched each cycle (Total) (Count)
system.cpu.fetch.nisnDist::5                   152075      0.73%     91.72% # Number of instructions fetched each cycle (Total) (Count)
system.cpu.fetch.nisnDist::6                   100563      0.48%     92.20% # Number of instructions fetched each cycle (Total) (Count)
system.cpu.fetch.nisnDist::7                   111762      0.53%     92.73% # Number of instructions fetched each cycle (Total) (Count)
system.cpu.fetch.nisnDist::8                  1519397      7.27%    100.00% # Number of instructions fetched each cycle (Total) (Count)
system.cpu.fetch.nisnDist::overflows                0      0.00%    100.00% # Number of instructions fetched each cycle (Total) (Count)
system.cpu.fetch.nisnDist::min_value                0                       # Number of instructions fetched each cycle (Total) (Count)
system.cpu.fetch.nisnDist::max_value                8                       # Number of instructions fetched each cycle (Total) (Count)
system.cpu.fetch.nisnDist::total             20902349                       # Number of instructions fetched each cycle (Total) (Count)
system.cpu.fetch.branchRate                  0.035084                       # Number of branch fetches per cycle (Ratio)
system.cpu.fetch.rate                        0.497584                       # Number of inst fetches per cycle ((Count/Cycle))
system.cpu.icache.demandHits::cpu.inst         295617                       # number of demand (read+write) hits (Count)
system.cpu.icache.demandHits::total            295617                       # number of demand (read+write) hits (Count)
system.cpu.icache.overallHits::cpu.inst        295617                       # number of overall hits (Count)
system.cpu.icache.overallHits::total           295617                       # number of overall hits (Count)
system.cpu.icache.demandMisses::cpu.inst          644                       # number of demand (read+write) misses (Count)
system.cpu.icache.demandMisses::total             644                       # number of demand (read+write) misses (Count)
system.cpu.icache.overallMisses::cpu.inst          644                       # number of overall misses (Count)
system.cpu.icache.overallMisses::total            644                       # number of overall misses (Count)
system.cpu.icache.demandMissLatency::cpu.inst     36383497                       # number of demand (read+write) miss ticks (Tick)
system.cpu.icache.demandMissLatency::total     36383497                       # number of demand (read+write) miss ticks (Tick)
system.cpu.icache.overallMissLatency::cpu.inst     36383497                       # number of overall miss ticks (Tick)
system.cpu.icache.overallMissLatency::total     36383497                       # number of overall miss ticks (Tick)
system.cpu.icache.demandAccesses::cpu.inst       296261                       # number of demand (read+write) accesses (Count)
system.cpu.icache.demandAccesses::total        296261                       # number of demand (read+write) accesses (Count)
system.cpu.icache.overallAccesses::cpu.inst       296261                       # number of overall (read+write) accesses (Count)
system.cpu.icache.overallAccesses::total       296261                       # number of overall (read+write) accesses (Count)
system.cpu.icache.demandMissRate::cpu.inst     0.002174                       # miss rate for demand accesses (Ratio)
system.cpu.icache.demandMissRate::total      0.002174                       # miss rate for demand accesses (Ratio)
system.cpu.icache.overallMissRate::cpu.inst     0.002174                       # miss rate for overall accesses (Ratio)
system.cpu.icache.overallMissRate::total     0.002174                       # miss rate for overall accesses (Ratio)
system.cpu.icache.demandAvgMissLatency::cpu.inst 56496.113354                       # average overall miss latency ((Cycle/Count))
system.cpu.icache.demandAvgMissLatency::total 56496.113354                       # average overall miss latency ((Cycle/Count))
system.cpu.icache.overallAvgMissLatency::cpu.inst 56496.113354                       # average overall miss latency ((Cycle/Count))
system.cpu.icache.overallAvgMissLatency::total 56496.113354                       # average overall miss latency ((Cycle/Count))
system.cpu.icache.blockedCycles::no_mshrs          560                       # number of cycles access was blocked (Cycle)
system.cpu.icache.blockedCycles::no_targets            0                       # number of cycles access was blocked (Cycle)
system.cpu.icache.blockedCauses::no_mshrs           12                       # number of times access was blocked (Count)
system.cpu.icache.blockedCauses::no_targets            0                       # number of times access was blocked (Count)
system.cpu.icache.avgBlocked::no_mshrs      46.666667                       # average number of cycles each access was blocked ((Cycle/Count))
system.cpu.icache.avgBlocked::no_targets          nan                       # average number of cycles each access was blocked ((Cycle/Count))
system.cpu.icache.writebacks::writebacks           96                       # number of writebacks (Count)
system.cpu.icache.writebacks::total                96                       # number of writebacks (Count)
system.cpu.icache.demandMshrHits::cpu.inst          160                       # number of demand (read+write) MSHR hits (Count)
system.cpu.icache.demandMshrHits::total           160                       # number of demand (read+write) MSHR hits (Count)
system.cpu.icache.overallMshrHits::cpu.inst          160                       # number of overall MSHR hits (Count)
system.cpu.icache.overallMshrHits::total          160                       # number of overall MSHR hits (Count)
system.cpu.icache.demandMshrMisses::cpu.inst          484                       # number of demand (read+write) MSHR misses (Count)
system.cpu.icache.demandMshrMisses::total          484                       # number of demand (read+write) MSHR misses (Count)
system.cpu.icache.overallMshrMisses::cpu.inst          484                       # number of overall MSHR misses (Count)
system.cpu.icache.overallMshrMisses::total          484                       # number of overall MSHR misses (Count)
system.cpu.icache.demandMshrMissLatency::cpu.inst     29310498                       # number of demand (read+write) MSHR miss ticks (Tick)
system.cpu.icache.demandMshrMissLatency::total     29310498                       # number of demand (read+write) MSHR miss ticks (Tick)
system.cpu.icache.overallMshrMissLatency::cpu.inst     29310498                       # number of overall MSHR miss ticks (Tick)
system.cpu.icache.overallMshrMissLatency::total     29310498                       # number of overall MSHR miss ticks (Tick)
system.cpu.icache.demandMshrMissRate::cpu.inst     0.001634                       # mshr miss ratio for demand accesses (Ratio)
system.cpu.icache.demandMshrMissRate::total     0.001634                       # mshr miss ratio for demand accesses (Ratio)
system.cpu.icache.overallMshrMissRate::cpu.inst     0.001634                       # mshr miss ratio for overall accesses (Ratio)
system.cpu.icache.overallMshrMissRate::total     0.001634                       # mshr miss ratio for overall accesses (Ratio)
system.cpu.icache.demandAvgMshrMissLatency::cpu.inst 60558.880165                       # average overall mshr miss latency ((Cycle/Count))
system.cpu.icache.demandAvgMshrMissLatency::total 60558.880165                       # average overall mshr miss latency ((Cycle/Count))
system.cpu.icache.overallAvgMshrMissLatency::cpu.inst 60558.880165                       # average overall mshr miss latency ((Cycle/Count))
system.cpu.icache.overallAvgMshrMissLatency::total 60558.880165                       # average overall mshr miss latency ((Cycle/Count))
system.cpu.icache.replacements                     96                       # number of replacements (Count)
system.cpu.icache.ReadReq.hits::cpu.inst       295617                       # number of ReadReq hits (Count)
system.cpu.icache.ReadReq.hits::total          295617                       # number of ReadReq hits (Count)
system.cpu.icache.ReadReq.misses::cpu.inst          644                       # number of ReadReq misses (Count)
system.cpu.icache.ReadReq.misses::total           644                       # number of ReadReq misses (Count)
system.cpu.icache.ReadReq.missLatency::cpu.inst     36383497                       # number of ReadReq miss ticks (Tick)
system.cpu.icache.ReadReq.missLatency::total     36383497                       # number of ReadReq miss ticks (Tick)
system.cpu.icache.ReadReq.accesses::cpu.inst       296261                       # number of ReadReq accesses(hits+misses) (Count)
system.cpu.icache.ReadReq.accesses::total       296261                       # number of ReadReq accesses(hits+misses) (Count)
system.cpu.icache.ReadReq.missRate::cpu.inst     0.002174                       # miss rate for ReadReq accesses (Ratio)
system.cpu.icache.ReadReq.missRate::total     0.002174                       # miss rate for ReadReq accesses (Ratio)
system.cpu.icache.ReadReq.avgMissLatency::cpu.inst 56496.113354                       # average ReadReq miss latency ((Tick/Count))
system.cpu.icache.ReadReq.avgMissLatency::total 56496.113354                       # average ReadReq miss latency ((Tick/Count))
system.cpu.icache.ReadReq.mshrHits::cpu.inst          160                       # number of ReadReq MSHR hits (Count)
system.cpu.icache.ReadReq.mshrHits::total          160                       # number of ReadReq MSHR hits (Count)
system.cpu.icache.ReadReq.mshrMisses::cpu.inst          484                       # number of ReadReq MSHR misses (Count)
system.cpu.icache.ReadReq.mshrMisses::total          484                       # number of ReadReq MSHR misses (Count)
system.cpu.icache.ReadReq.mshrMissLatency::cpu.inst     29310498                       # number of ReadReq MSHR miss ticks (Tick)
system.cpu.icache.ReadReq.mshrMissLatency::total     29310498                       # number of ReadReq MSHR miss ticks (Tick)
system.cpu.icache.ReadReq.mshrMissRate::cpu.inst     0.001634                       # mshr miss rate for ReadReq accesses (Ratio)
system.cpu.icache.ReadReq.mshrMissRate::total     0.001634                       # mshr miss rate for ReadReq accesses (Ratio)
system.cpu.icache.ReadReq.avgMshrMissLatency::cpu.inst 60558.880165                       # average ReadReq mshr miss latency ((Tick/Count))
system.cpu.icache.ReadReq.avgMshrMissLatency::total 60558.880165                       # average ReadReq mshr miss latency ((Tick/Count))
system.cpu.icache.power_state.pwrStateResidencyTicks::UNDEFINED  10463762500                       # Cumulative time (in ticks) in various power states (Tick)
system.cpu.icache.tags.tagsInUse           385.501552                       # Average ticks per tags in use ((Tick/Count))
system.cpu.icache.tags.totalRefs               296101                       # Total number of references to valid blocks. (Count)
system.cpu.icache.tags.sampledRefs                484                       # Sample count of references to valid blocks. (Count)
system.cpu.icache.tags.avgRefs             611.778926                       # Average number of references to valid blocks. ((Count/Count))
system.cpu.icache.tags.warmupTick               77000                       # The tick when the warmup percentage was hit. (Tick)
system.cpu.icache.tags.occupancies::cpu.inst   385.501552                       # Average occupied blocks per tick, per requestor ((Count/Tick))
system.cpu.icache.tags.avgOccs::cpu.inst     0.752933                       # Average percentage of cache occupancy ((Ratio/Tick))
system.cpu.icache.tags.avgOccs::total        0.752933                       # Average percentage of cache occupancy ((Ratio/Tick))
system.cpu.icache.tags.occupanciesTaskId::1024          388                       # Occupied blocks per task id (Count)
system.cpu.icache.tags.ageTaskId_1024::3           69                       # Occupied blocks per task id, per block age (Count)
system.cpu.icache.tags.ageTaskId_1024::4          319                       # Occupied blocks per task id, per block age (Count)
system.cpu.icache.tags.ratioOccsTaskId::1024     0.757812                       # Ratio of occupied blocks and all blocks, per task id (Ratio)
system.cpu.icache.tags.tagAccesses             593006                       # Number of tag accesses (Count)
system.cpu.icache.tags.dataAccesses            593006                       # Number of data accesses (Count)
system.cpu.icache.tags.power_state.pwrStateResidencyTicks::UNDEFINED  10463762500                       # Cumulative time (in ticks) in various power states (Tick)
system.cpu.lsq0.forwLoads                      182744                       # Number of loads that had data forwarded from stores (Count)
system.cpu.lsq0.squashedLoads                    9557                       # Number of loads squashed (Count)
system.cpu.lsq0.ignoredResponses                   51                       # Number of memory responses ignored because the instruction is squashed (Count)
system.cpu.lsq0.memOrderViolation                  99                       # Number of memory ordering violations (Count)
system.cpu.lsq0.squashedStores                 169331                       # Number of stores squashed (Count)
system.cpu.lsq0.rescheduledLoads                   89                       # Number of loads that were rescheduled (Count)
system.cpu.lsq0.blockedByCache                    116                       # Number of times an access to memory failed due to the cache being blocked (Count)
system.cpu.lsq0.loadToUse::samples            1965036                       # Distribution of cycle latency between the first time a load is issued and its completion (Unspecified)
system.cpu.lsq0.loadToUse::mean              3.439325                       # Distribution of cycle latency between the first time a load is issued and its completion (Unspecified)
system.cpu.lsq0.loadToUse::stdev             2.958581                       # Distribution of cycle latency between the first time a load is issued and its completion (Unspecified)
system.cpu.lsq0.loadToUse::0-9                1963494     99.92%     99.92% # Distribution of cycle latency between the first time a load is issued and its completion (Unspecified)
system.cpu.lsq0.loadToUse::10-19                   24      0.00%     99.92% # Distribution of cycle latency between the first time a load is issued and its completion (Unspecified)
system.cpu.lsq0.loadToUse::20-29                   34      0.00%     99.92% # Distribution of cycle latency between the first time a load is issued and its completion (Unspecified)
system.cpu.lsq0.loadToUse::30-39                    4      0.00%     99.92% # Distribution of cycle latency between the first time a load is issued and its completion (Unspecified)
system.cpu.lsq0.loadToUse::40-49                   20      0.00%     99.93% # Distribution of cycle latency between the first time a load is issued and its completion (Unspecified)
system.cpu.lsq0.loadToUse::50-59                    5      0.00%     99.93% # Distribution of cycle latency between the first time a load is issued and its completion (Unspecified)
system.cpu.lsq0.loadToUse::60-69                  138      0.01%     99.93% # Distribution of cycle latency between the first time a load is issued and its completion (Unspecified)
system.cpu.lsq0.loadToUse::70-79                  232      0.01%     99.94% # Distribution of cycle latency between the first time a load is issued and its completion (Unspecified)
system.cpu.lsq0.loadToUse::80-89                  484      0.02%     99.97% # Distribution of cycle latency between the first time a load is issued and its completion (Unspecified)
system.cpu.lsq0.loadToUse::90-99                  115      0.01%     99.98% # Distribution of cycle latency between the first time a load is issued and its completion (Unspecified)
system.cpu.lsq0.loadToUse::100-109                115      0.01%     99.98% # Distribution of cycle latency between the first time a load is issued and its completion (Unspecified)
system.cpu.lsq0.loadToUse::110-119                161      0.01%     99.99% # Distribution of cycle latency between the first time a load is issued and its completion (Unspecified)
system.cpu.lsq0.loadToUse::120-129                 49      0.00%     99.99% # Distribution of cycle latency between the first time a load is issued and its completion (Unspecified)
system.cpu.lsq0.loadToUse::130-139                 24      0.00%     99.99% # Distribution of cycle latency between the first time a load is issued and its completion (Unspecified)
system.cpu.lsq0.loadToUse::140-149                 22      0.00%     99.99% # Distribution of cycle latency between the first time a load is issued and its completion (Unspecified)
system.cpu.lsq0.loadToUse::150-159                 21      0.00%    100.00% # Distribution of cycle latency between the first time a load is issued and its completion (Unspecified)
system.cpu.lsq0.loadToUse::160-169                 34      0.00%    100.00% # Distribution of cycle latency between the first time a load is issued and its completion (Unspecified)
system.cpu.lsq0.loadToUse::170-179                  9      0.00%    100.00% # Distribution of cycle latency between the first time a load is issued and its completion (Unspecified)
system.cpu.lsq0.loadToUse::180-189                  3      0.00%    100.00% # Distribution of cycle latency between the first time a load is issued and its completion (Unspecified)
system.cpu.lsq0.loadToUse::190-199                  1      0.00%    100.00% # Distribution of cycle latency between the first time a load is issued and its completion (Unspecified)
system.cpu.lsq0.loadToUse::200-209                  1      0.00%    100.00% # Distribution of cycle latency between the first time a load is issued and its completion (Unspecified)
system.cpu.lsq0.loadToUse::210-219                  3      0.00%    100.00% # Distribution of cycle latency between the first time a load is issued and its completion (Unspecified)
system.cpu.lsq0.loadToUse::220-229                  3      0.00%    100.00% # Distribution of cycle latency between the first time a load is issued and its completion (Unspecified)
system.cpu.lsq0.loadToUse::230-239                  8      0.00%    100.00% # Distribution of cycle latency between the first time a load is issued and its completion (Unspecified)
system.cpu.lsq0.loadToUse::240-249                  1      0.00%    100.00% # Distribution of cycle latency between the first time a load is issued and its completion (Unspecified)
system.cpu.lsq0.loadToUse::250-259                  1      0.00%    100.00% # Distribution of cycle latency between the first time a load is issued and its completion (Unspecified)
system.cpu.lsq0.loadToUse::260-269                  1      0.00%    100.00% # Distribution of cycle latency between the first time a load is issued and its completion (Unspecified)
system.cpu.lsq0.loadToUse::280-289                  1      0.00%    100.00% # Distribution of cycle latency between the first time a load is issued and its completion (Unspecified)
system.cpu.lsq0.loadToUse::290-299                 13      0.00%    100.00% # Distribution of cycle latency between the first time a load is issued and its completion (Unspecified)
[...]
system.mem_ctrls.dram.bwRead::cpu.inst        2960312                       # Total read bandwidth from this memory ((Byte/Second))
system.mem_ctrls.dram.bwRead::cpu.data     1991458044                       # Total read bandwidth from this memory ((Byte/Second))
system.mem_ctrls.dram.bwRead::total        1994418356                       # Total read bandwidth from this memory ((Byte/Second))
system.mem_ctrls.dram.bwInstRead::cpu.inst      2960312                       # Instruction read bandwidth from this memory ((Byte/Second))
system.mem_ctrls.dram.bwInstRead::total       2960312                       # Instruction read bandwidth from this memory ((Byte/Second))
system.mem_ctrls.dram.bwWrite::writebacks   1983934937                       # Write bandwidth from this memory ((Byte/Second))
system.mem_ctrls.dram.bwWrite::total       1983934937                       # Write bandwidth from this memory ((Byte/Second))
system.mem_ctrls.dram.bwTotal::writebacks   1983934937                       # Total bandwidth to/from this memory ((Byte/Second))
system.mem_ctrls.dram.bwTotal::cpu.inst       2960312                       # Total bandwidth to/from this memory ((Byte/Second))
system.mem_ctrls.dram.bwTotal::cpu.data    1991458044                       # Total bandwidth to/from this memory ((Byte/Second))
system.mem_ctrls.dram.bwTotal::total       3978353293                       # Total bandwidth to/from this memory ((Byte/Second))
system.mem_ctrls.dram.readBursts               326076                       # Number of DRAM read bursts (Count)
system.mem_ctrls.dram.writeBursts              324430                       # Number of DRAM write bursts (Count)
system.mem_ctrls.dram.perBankRdBursts::0        20380                       # Per bank write bursts (Count)
system.mem_ctrls.dram.perBankRdBursts::1        20441                       # Per bank write bursts (Count)
system.mem_ctrls.dram.perBankRdBursts::2        20381                       # Per bank write bursts (Count)
system.mem_ctrls.dram.perBankRdBursts::3        20421                       # Per bank write bursts (Count)
system.mem_ctrls.dram.perBankRdBursts::4        20353                       # Per bank write bursts (Count)
system.mem_ctrls.dram.perBankRdBursts::5        20178                       # Per bank write bursts (Count)
system.mem_ctrls.dram.perBankRdBursts::6        20244                       # Per bank write bursts (Count)
system.mem_ctrls.dram.perBankRdBursts::7        20349                       # Per bank write bursts (Count)
system.mem_ctrls.dram.perBankRdBursts::8        20465                       # Per bank write bursts (Count)
system.mem_ctrls.dram.perBankRdBursts::9        20361                       # Per bank write bursts (Count)
system.mem_ctrls.dram.perBankRdBursts::10        20428                       # Per bank write bursts (Count)
system.mem_ctrls.dram.perBankRdBursts::11        20422                       # Per bank write bursts (Count)
system.mem_ctrls.dram.perBankRdBursts::12        20458                       # Per bank write bursts (Count)
system.mem_ctrls.dram.perBankRdBursts::13        20390                       # Per bank write bursts (Count)
system.mem_ctrls.dram.perBankRdBursts::14        20401                       # Per bank write bursts (Count)
system.mem_ctrls.dram.perBankRdBursts::15        20404                       # Per bank write bursts (Count)
system.mem_ctrls.dram.perBankWrBursts::0        20228                       # Per bank write bursts (Count)
system.mem_ctrls.dram.perBankWrBursts::1        20374                       # Per bank write bursts (Count)
system.mem_ctrls.dram.perBankWrBursts::2        20357                       # Per bank write bursts (Count)
system.mem_ctrls.dram.perBankWrBursts::3        20317                       # Per bank write bursts (Count)
system.mem_ctrls.dram.perBankWrBursts::4        20301                       # Per bank write bursts (Count)
system.mem_ctrls.dram.perBankWrBursts::5        20158                       # Per bank write bursts (Count)
system.mem_ctrls.dram.perBankWrBursts::6        20192                       # Per bank write bursts (Count)
system.mem_ctrls.dram.perBankWrBursts::7        20312                       # Per bank write bursts (Count)
system.mem_ctrls.dram.perBankWrBursts::8        20372                       # Per bank write bursts (Count)
system.mem_ctrls.dram.perBankWrBursts::9        20214                       # Per bank write bursts (Count)
system.mem_ctrls.dram.perBankWrBursts::10        20284                       # Per bank write bursts (Count)
system.mem_ctrls.dram.perBankWrBursts::11        20291                       # Per bank write bursts (Count)
system.mem_ctrls.dram.perBankWrBursts::12        20304                       # Per bank write bursts (Count)
system.mem_ctrls.dram.perBankWrBursts::13        20257                       # Per bank write bursts (Count)
system.mem_ctrls.dram.perBankWrBursts::14        20236                       # Per bank write bursts (Count)
system.mem_ctrls.dram.perBankWrBursts::15        20233                       # Per bank write bursts (Count)
system.mem_ctrls.dram.totQLat              7260218500                       # Total ticks spent queuing (Tick)
system.mem_ctrls.dram.totBusLat            1630380000                       # Total ticks spent in databus transfers (Tick)
system.mem_ctrls.dram.totMemAccLat        13374143500                       # Total ticks spent from burst creation until serviced by the DRAM (Tick)
system.mem_ctrls.dram.avgQLat                22265.42                       # Average queueing delay per DRAM burst ((Tick/Count))
system.mem_ctrls.dram.avgBusLat               5000.00                       # Average bus latency per DRAM burst ((Tick/Count))
system.mem_ctrls.dram.avgMemAccLat           41015.42                       # Average memory access latency per DRAM burst ((Tick/Count))
system.mem_ctrls.dram.readRowHits              303955                       # Number of row buffer hits during reads (Count)
system.mem_ctrls.dram.writeRowHits             302596                       # Number of row buffer hits during writes (Count)
system.mem_ctrls.dram.readRowHitRate            93.22                       # Row buffer hit rate for reads (Ratio)
system.mem_ctrls.dram.writeRowHitRate           93.27                       # Row buffer hit rate for writes (Ratio)
system.mem_ctrls.dram.bytesPerActivate::samples        43951                       # Bytes accessed per row activation (Byte)
system.mem_ctrls.dram.bytesPerActivate::mean   947.197379                       # Bytes accessed per row activation (Byte)
system.mem_ctrls.dram.bytesPerActivate::gmean   881.970873                       # Bytes accessed per row activation (Byte)
system.mem_ctrls.dram.bytesPerActivate::stdev   225.375369                       # Bytes accessed per row activation (Byte)
system.mem_ctrls.dram.bytesPerActivate::0-127          207      0.47%      0.47% # Bytes accessed per row activation (Byte)
system.mem_ctrls.dram.bytesPerActivate::128-255         1506      3.43%      3.90% # Bytes accessed per row activation (Byte)
system.mem_ctrls.dram.bytesPerActivate::256-383         1651      3.76%      7.65% # Bytes accessed per row activation (Byte)
system.mem_ctrls.dram.bytesPerActivate::384-511           78      0.18%      7.83% # Bytes accessed per row activation (Byte)
system.mem_ctrls.dram.bytesPerActivate::512-639           58      0.13%      7.96% # Bytes accessed per row activation (Byte)
system.mem_ctrls.dram.bytesPerActivate::640-767           45      0.10%      8.07% # Bytes accessed per row activation (Byte)
system.mem_ctrls.dram.bytesPerActivate::768-895         1278      2.91%     10.97% # Bytes accessed per row activation (Byte)
system.mem_ctrls.dram.bytesPerActivate::896-1023         1291      2.94%     13.91% # Bytes accessed per row activation (Byte)
system.mem_ctrls.dram.bytesPerActivate::1024-1151        37837     86.09%    100.00% # Bytes accessed per row activation (Byte)
system.mem_ctrls.dram.bytesPerActivate::total        43951                       # Bytes accessed per row activation (Byte)
system.mem_ctrls.dram.bytesRead              20868864                       # Total number of bytes read from DRAM (Byte)
system.mem_ctrls.dram.bytesWritten           20763520                       # Total number of bytes written to DRAM (Byte)
system.mem_ctrls.dram.avgRdBW             1994.393890                       # Average DRAM read bandwidth in MiBytes/s ((Byte/Second))
system.mem_ctrls.dram.avgWrBW             1984.326384                       # Average DRAM write bandwidth in MiBytes/s ((Byte/Second))
system.mem_ctrls.dram.peakBW                 12800.00                       # Theoretical peak bandwidth in MiByte/s ((Byte/Second))
system.mem_ctrls.dram.busUtil                   31.08                       # Data bus utilization in percentage (Ratio)
system.mem_ctrls.dram.busUtilRead               15.58                       # Data bus utilization in percentage for reads (Ratio)
system.mem_ctrls.dram.busUtilWrite              15.50                       # Data bus utilization in percentage for writes (Ratio)
system.mem_ctrls.dram.pageHitRate               93.24                       # Row buffer hit rate, read and write combined (Ratio)
system.mem_ctrls.dram.power_state.pwrStateResidencyTicks::UNDEFINED  10463762500                       # Cumulative time (in ticks) in various power states (Tick)
system.mem_ctrls.dram.rank0.actEnergy       156772980                       # Energy for activate commands per rank (pJ) (Joule)
system.mem_ctrls.dram.rank0.preEnergy        83319225                       # Energy for precharge commands per rank (pJ) (Joule)
system.mem_ctrls.dram.rank0.readEnergy     1162013580                       # Energy for read commands per rank (pJ) (Joule)
system.mem_ctrls.dram.rank0.writeEnergy     846887580                       # Energy for write commands per rank (pJ) (Joule)
system.mem_ctrls.dram.rank0.refreshEnergy 825461520.000000                       # Energy for refresh commands per rank (pJ) (Joule)
system.mem_ctrls.dram.rank0.actBackEnergy   4312664460                       # Energy for active background per rank (pJ) (Joule)
system.mem_ctrls.dram.rank0.preBackEnergy    386367360                       # Energy for precharge background per rank (pJ) (Joule)
system.mem_ctrls.dram.rank0.actPowerDownEnergy            0                       # Energy for active power-down per rank (pJ) (Joule)
system.mem_ctrls.dram.rank0.prePowerDownEnergy            0                       # Energy for precharge power-down per rank (pJ) (Joule)
system.mem_ctrls.dram.rank0.selfRefreshEnergy            0                       # Energy for self refresh per rank (pJ) (Joule)
system.mem_ctrls.dram.rank0.totalEnergy    7773486705                       # Total energy per rank (pJ) (Joule)
system.mem_ctrls.dram.rank0.averagePower   742.895943                       # Core power per rank (mW) (Watt)
system.mem_ctrls.dram.rank0.totalIdleTime            0                       # Total Idle time Per DRAM Rank (Tick)
system.mem_ctrls.dram.rank0.pwrStateTime::IDLE    916929000                       # Time in different power states (Tick)
system.mem_ctrls.dram.rank0.pwrStateTime::REF    349180000                       # Time in different power states (Tick)
system.mem_ctrls.dram.rank0.pwrStateTime::SREF            0                       # Time in different power states (Tick)
system.mem_ctrls.dram.rank0.pwrStateTime::PRE_PDN            0                       # Time in different power states (Tick)
system.mem_ctrls.dram.rank0.pwrStateTime::ACT   9197653500                       # Time in different power states (Tick)
system.mem_ctrls.dram.rank0.pwrStateTime::ACT_PDN            0                       # Time in different power states (Tick)
system.mem_ctrls.dram.rank1.actEnergy       157065720                       # Energy for activate commands per rank (pJ) (Joule)
system.mem_ctrls.dram.rank1.preEnergy        83474820                       # Energy for precharge commands per rank (pJ) (Joule)
system.mem_ctrls.dram.rank1.readEnergy     1166169060                       # Energy for read commands per rank (pJ) (Joule)
system.mem_ctrls.dram.rank1.writeEnergy     846637020                       # Energy for write commands per rank (pJ) (Joule)
system.mem_ctrls.dram.rank1.refreshEnergy 825461520.000000                       # Energy for refresh commands per rank (pJ) (Joule)
system.mem_ctrls.dram.rank1.actBackEnergy   4302869010                       # Energy for active background per rank (pJ) (Joule)
system.mem_ctrls.dram.rank1.preBackEnergy    394616160                       # Energy for precharge background per rank (pJ) (Joule)
system.mem_ctrls.dram.rank1.actPowerDownEnergy            0                       # Energy for active power-down per rank (pJ) (Joule)
system.mem_ctrls.dram.rank1.prePowerDownEnergy            0                       # Energy for precharge power-down per rank (pJ) (Joule)
system.mem_ctrls.dram.rank1.selfRefreshEnergy            0                       # Energy for self refresh per rank (pJ) (Joule)
system.mem_ctrls.dram.rank1.totalEnergy    7776293310                       # Total energy per rank (pJ) (Joule)
system.mem_ctrls.dram.rank1.averagePower   743.164164                       # Core power per rank (mW) (Watt)
system.mem_ctrls.dram.rank1.totalIdleTime            0                       # Total Idle time Per DRAM Rank (Tick)
system.mem_ctrls.dram.rank1.pwrStateTime::IDLE    938526000                       # Time in different power states (Tick)
system.mem_ctrls.dram.rank1.pwrStateTime::REF    349180000                       # Time in different power states (Tick)
system.mem_ctrls.dram.rank1.pwrStateTime::SREF            0                       # Time in different power states (Tick)
system.mem_ctrls.dram.rank1.pwrStateTime::PRE_PDN            0                       # Time in different power states (Tick)
system.mem_ctrls.dram.rank1.pwrStateTime::ACT   9176056500                       # Time in different power states (Tick)
system.mem_ctrls.dram.rank1.pwrStateTime::ACT_PDN            0                       # Time in different power states (Tick)
system.mem_ctrls.power_state.pwrStateResidencyTicks::UNDEFINED  10463762500                       # Cumulative time (in ticks) in various power states (Tick)
system.membus.transDist::ReadResp                 705                       # Transaction distribution (Count)
system.membus.transDist::WritebackDirty        324366                       # Transaction distribution (Count)
system.membus.transDist::WritebackClean            96                       # Transaction distribution (Count)
system.membus.transDist::CleanEvict               205                       # Transaction distribution (Count)
system.membus.transDist::ReadExReq             325375                       # Transaction distribution (Count)
system.membus.transDist::ReadExResp            325374                       # Transaction distribution (Count)
system.membus.transDist::ReadCleanReq             484                       # Transaction distribution (Count)
system.membus.transDist::ReadSharedReq            221                       # Transaction distribution (Count)
system.membus.pktCount_system.cpu.icache.mem_side_port::system.mem_ctrls.port         1064                       # Packet count per connected requestor and responder (Count)
system.membus.pktCount_system.cpu.dcache.mem_side_port::system.mem_ctrls.port       975762                       # Packet count per connected requestor and responder (Count)
system.membus.pktCount::total                  976826                       # Packet count per connected requestor and responder (Count)
system.membus.pktSize_system.cpu.icache.mem_side_port::system.mem_ctrls.port        37120                       # Cumulative packet size per connected requestor and responder (Byte)
system.membus.pktSize_system.cpu.dcache.mem_side_port::system.mem_ctrls.port     41597504                       # Cumulative packet size per connected requestor and responder (Byte)
system.membus.pktSize::total                 41634624                       # Cumulative packet size per connected requestor and responder (Byte)
system.membus.snoops                                0                       # Total snoops (Count)
system.membus.snoopTraffic                          0                       # Total snoop traffic (Byte)
system.membus.snoopFanout::samples             326080                       # Request fanout histogram (Count)
system.membus.snoopFanout::mean              0.000181                       # Request fanout histogram (Count)
system.membus.snoopFanout::stdev             0.013450                       # Request fanout histogram (Count)
system.membus.snoopFanout::underflows               0      0.00%      0.00% # Request fanout histogram (Count)
system.membus.snoopFanout::0                   326021     99.98%     99.98% # Request fanout histogram (Count)
system.membus.snoopFanout::1                       59      0.02%    100.00% # Request fanout histogram (Count)
system.membus.snoopFanout::2                        0      0.00%    100.00% # Request fanout histogram (Count)
system.membus.snoopFanout::overflows                0      0.00%    100.00% # Request fanout histogram (Count)
system.membus.snoopFanout::min_value                0                       # Request fanout histogram (Count)
system.membus.snoopFanout::max_value                1                       # Request fanout histogram (Count)
system.membus.snoopFanout::total               326080                       # Request fanout histogram (Count)
system.membus.power_state.pwrStateResidencyTicks::UNDEFINED  10463762500                       # Cumulative time (in ticks) in various power states (Tick)
system.membus.reqLayer0.occupancy          2019941000                       # Layer occupancy (ticks) (Tick)
system.membus.reqLayer0.utilization               0.2                       # Layer utilization (Ratio)
system.membus.respLayer1.occupancy            2578250                       # Layer occupancy (ticks) (Tick)
system.membus.respLayer1.utilization              0.0                       # Layer utilization (Ratio)
system.membus.respLayer2.occupancy         1691776750                       # Layer occupancy (ticks) (Tick)
system.membus.respLayer2.utilization              0.2                       # Layer utilization (Ratio)
system.membus.snoop_filter.totRequests         650747                       # Total number of requests made to the snoop filter. (Count)
system.membus.snoop_filter.hitSingleRequests       324667                       # Number of requests hitting in the snoop filter with a single holder of the requested data. (Count)
system.membus.snoop_filter.hitMultiRequests           59                       # Number of requests hitting in the snoop filter with multiple (>1) holders of the requested data. (Count)
system.membus.snoop_filter.totSnoops                0                       # Total number of snoops made to the snoop filter. (Count)
system.membus.snoop_filter.hitSingleSnoops            0                       # Number of snoops hitting in the snoop filter with a single holder of the requested data. (Count)
system.membus.snoop_filter.hitMultiSnoops            0                       # Number of snoops hitting in the snoop filter with multiple (>1) holders of the requested data. (Count)
system.voltage_domain.voltage                       1                       # Voltage in Volts (Volt)
system.workload.inst.arm                            0                       # number of arm instructions executed (Count)
system.workload.inst.quiesce                        0                       # number of quiesce instructions executed (Count)

---------- End Simulation Statistics   ----------
