
---------- Begin Simulation Statistics ----------
simSeconds                                   0.012834                       # Number of seconds simulated (Second)
simTicks                                  12833809500                       # Number of ticks simulated (Tick)
finalTick                                 12833809500                       # Number of ticks from beginning of simulation (restored from checkpoints and never reset) (Tick)
simFreq                                  1000000000000                       # The number of ticks per simulated second ((Tick/Second))
hostSeconds                                     80.53                       # Real time elapsed on the host (Second)
hostTickRate                                159357405                       # The number of ticks simulated per host second (ticks/s) ((Tick/Second))
hostMemory                                     672652                       # Number of bytes of host memory used (Byte)
simInsts                                     10000000                       # Number of instructions simulated (Count)
simOps                                       15171534                       # Number of ops (including micro ops) simulated (Count)
hostInstRate                                   124168                       # Simulator instruction rate (inst/s) ((Count/Second))
hostOpRate                                     188381                       # Simulator op (including micro ops) rate (op/s) ((Count/Second))
system.clk_domain.clock                          1000                       # Clock period in ticks (Tick)
system.cpu.numCycles                         25667620                       # Number of cpu cycles simulated (Cycle)
system.cpu.numWorkItemsStarted                      0                       # Number of work items this cpu started (Count)
system.cpu.numWorkItemsCompleted                    0                       # Number of work items this cpu completed (Count)
system.cpu.instsAdded                        15558015                       # Number of instructions added to the IQ (excludes non-spec) (Count)
system.cpu.nonSpecInstsAdded                       57                       # Number of non-speculative instructions added to the IQ (Count)
system.cpu.instsIssued                       15544021                       # Number of instructions issued (Count)
system.cpu.squashedInstsIssued                     58                       # Number of squashed instructions issued (Count)
system.cpu.squashedInstsExamined               386529                       # Number of squashed instructions iterated over during squash; mainly for profiling (Count)
system.cpu.squashedOperandsExamined            577318                       # Number of squashed operands that are examined and possibly removed from graph (Count)
system.cpu.squashedNonSpecRemoved                   5                       # Number of squashed non-spec instructions that were removed (Count)
system.cpu.numIssuedDist::samples            25633335                       # Number of insts issued each cycle (Count)
system.cpu.numIssuedDist::mean               0.606399                       # Number of insts issued each cycle (Count)
system.cpu.numIssuedDist::stdev              1.412475                       # Number of insts issued each cycle (Count)
system.cpu.numIssuedDist::underflows                0      0.00%      0.00% # Number of insts issued each cycle (Count)
system.cpu.numIssuedDist::0                  20923121     81.62%     81.62% # Number of insts issued each cycle (Count)
system.cpu.numIssuedDist::1                    940134      3.67%     85.29% # Number of insts issued each cycle (Count)
system.cpu.numIssuedDist::2                    258033      1.01%     86.30% # Number of insts issued each cycle (Count)
system.cpu.numIssuedDist::3                    872369      3.40%     89.70% # Number of insts issued each cycle (Count)
system.cpu.numIssuedDist::4                   1852030      7.23%     96.93% # Number of insts issued each cycle (Count)
system.cpu.numIssuedDist::5                    687652      2.68%     99.61% # Number of insts issued each cycle (Count)
system.cpu.numIssuedDist::6                     76987      0.30%     99.91% # Number of insts issued each cycle (Count)
system.cpu.numIssuedDist::7                     21660      0.08%     99.99% # Number of insts issued each cycle (Count)
system.cpu.numIssuedDist::8                      1349      0.01%    100.00% # Number of insts issued each cycle (Count)
system.cpu.numIssuedDist::overflows                 0      0.00%    100.00% # Number of insts issued each cycle (Count)
system.cpu.numIssuedDist::min_value                 0                       # Number of insts issued each cycle (Count)
system.cpu.numIssuedDist::max_value                 8                       # Number of insts issued each cycle (Count)
system.cpu.numIssuedDist::total              25633335                       # Number of insts issued each cycle (Count)
system.cpu.statFuBusy::No_OpClass                   0      0.00%      0.00% # attempts to use FU when none available (Count)
system.cpu.statFuBusy::IntAlu                     174      0.21%      0.21% # attempts to use FU when none available (Count)
system.cpu.statFuBusy::IntMult                      0      0.00%      0.21% # attempts to use FU when none available (Count)
system.cpu.statFuBusy::IntDiv                       0      0.00%      0.21% # attempts to use FU when none available (Count)
system.cpu.statFuBusy::FloatAdd                     0      0.00%      0.21% # attempts to use FU when none available (Count)
system.cpu.statFuBusy::FloatCmp                     0      0.00%      0.21% # attempts to use FU when none available (Count)
system.cpu.statFuBusy::FloatCvt                     0      0.00%      0.21% # attempts to use FU when none available (Count)
system.cpu.statFuBusy::FloatMult                    0      0.00%      0.21% # attempts to use FU when none available (Count)
system.cpu.statFuBusy::FloatMultAcc                 0      0.00%      0.21% # attempts to use FU when none available (Count)
system.cpu.statFuBusy::FloatDiv                     0      0.00%      0.21% # attempts to use FU when none available (Count)
system.cpu.statFuBusy::FloatMisc                    0      0.00%      0.21% # attempts to use FU when none available (Count)
system.cpu.statFuBusy::FloatSqrt                    0      0.00%      0.21% # attempts to use FU when none available (Count)
system.cpu.statFuBusy::SimdAdd                      0      0.00%      0.21% # attempts to use FU when none available (Count)
system.cpu.statFuBusy::SimdAddAcc                   0      0.00%      0.21% # attempts to use FU when none available (Count)
system.cpu.statFuBusy::SimdAlu                      0      0.00%      0.21% # attempts to use FU when none available (Count)
system.cpu.statFuBusy::SimdCmp                      0      0.00%      0.21% # attempts to use FU when none available (Count)
system.cpu.statFuBusy::SimdCvt                      0      0.00%      0.21% # attempts to use FU when none available (Count)
system.cpu.statFuBusy::SimdMisc                     0      0.00%      0.21% # attempts to use FU when none available (Count)
system.cpu.statFuBusy::SimdMult                     0      0.00%      0.21% # attempts to use FU when none available (Count)
system.cpu.statFuBusy::SimdMultAcc                  0      0.00%      0.21% # attempts to use FU when none available (Count)
system.cpu.statFuBusy::SimdShift                    0      0.00%      0.21% # attempts to use FU when none available (Count)
system.cpu.statFuBusy::SimdShiftAcc                 0      0.00%      0.21% # attempts to use FU when none available (Count)
system.cpu.statFuBusy::SimdDiv                      0      0.00%      0.21% # attempts to use FU when none available (Count)
system.cpu.statFuBusy::SimdSqrt                     0      0.00%      0.21% # attempts to use FU when none available (Count)
system.cpu.statFuBusy::SimdFloatAdd                 0      0.00%      0.21% # attempts to use FU when none available (Count)
system.cpu.statFuBusy::SimdFloatAlu                 0      0.00%      0.21% # attempts to use FU when none available (Count)
system.cpu.statFuBusy::SimdFloatCmp                 0      0.00%      0.21% # attempts to use FU when none available (Count)
system.cpu.statFuBusy::SimdFloatCvt                 0      0.00%      0.21% # attempts to use FU when none available (Count)
system.cpu.statFuBusy::SimdFloatDiv                 0      0.00%      0.21% # attempts to use FU when none available (Count)
system.cpu.statFuBusy::SimdFloatMisc                0      0.00%      0.21% # attempts to use FU when none available (Count)
system.cpu.statFuBusy::SimdFloatMult                0      0.00%      0.21% # attempts to use FU when none available (Count)
system.cpu.statFuBusy::SimdFloatMultAcc             0      0.00%      0.21% # attempts to use FU when none available (Count)
system.cpu.statFuBusy::SimdFloatSqrt                0      0.00%      0.21% # attempts to use FU when none available (Count)
system.cpu.statFuBusy::SimdReduceAdd                0      0.00%      0.21% # attempts to use FU when none available (Count)
system.cpu.statFuBusy::SimdReduceAlu                0      0.00%      0.21% # attempts to use FU when none available (Count)
system.cpu.statFuBusy::SimdReduceCmp                0      0.00%      0.21% # attempts to use FU when none available (Count)
system.cpu.statFuBusy::SimdFloatReduceAdd            0      0.00%      0.21% # attempts to use FU when none available (Count)
system.cpu.statFuBusy::SimdFloatReduceCmp            0      0.00%      0.21% # attempts to use FU when none available (Count)
system.cpu.statFuBusy::SimdAes                      0      0.00%      0.21% # attempts to use FU when none available (Count)
system.cpu.statFuBusy::SimdAesMix                   0      0.00%      0.21% # attempts to use FU when none available (Count)
system.cpu.statFuBusy::SimdSha1Hash                 0      0.00%      0.21% # attempts to use FU when none available (Count)
system.cpu.statFuBusy::SimdSha1Hash2                0      0.00%      0.21% # attempts to use FU when none available (Count)
system.cpu.statFuBusy::SimdSha256Hash               0      0.00%      0.21% # attempts to use FU when none available (Count)
system.cpu.statFuBusy::SimdSha256Hash2              0      0.00%      0.21% # attempts to use FU when none available (Count)
system.cpu.statFuBusy::SimdShaSigma2                0      0.00%      0.21% # attempts to use FU when none available (Count)
system.cpu.statFuBusy::SimdShaSigma3                0      0.00%      0.21% # attempts to use FU when none available (Count)
system.cpu.statFuBusy::SimdPredAlu                  0      0.00%      0.21% # attempts to use FU when none available (Count)
system.cpu.statFuBusy::MemRead                  83194     99.11%     99.32% # attempts to use FU when none available (Count)
system.cpu.statFuBusy::MemWrite                   570      0.68%    100.00% # attempts to use FU when none available (Count)
system.cpu.statFuBusy::FloatMemRead                 0      0.00%    100.00% # attempts to use FU when none available (Count)
system.cpu.statFuBusy::FloatMemWrite                0      0.00%    100.00% # attempts to use FU when none available (Count)
system.cpu.statFuBusy::IprAccess                    0      0.00%    100.00% # attempts to use FU when none available (Count)
system.cpu.statFuBusy::InstPrefetch                 0      0.00%    100.00% # attempts to use FU when none available (Count)
system.cpu.statIssuedInstType_0::No_OpClass            2      0.00%      0.00% # Number of instructions issued per FU type, per thread (Count)
system.cpu.statIssuedInstType_0::IntAlu       8066318     51.89%     51.89% # Number of instructions issued per FU type, per thread (Count)
system.cpu.statIssuedInstType_0::IntMult            6      0.00%     51.89% # Number of instructions issued per FU type, per thread (Count)
system.cpu.statIssuedInstType_0::IntDiv             0      0.00%     51.89% # Number of instructions issued per FU type, per thread (Count)
system.cpu.statIssuedInstType_0::FloatAdd            0      0.00%     51.89% # Number of instructions issued per FU type, per thread (Count)
system.cpu.statIssuedInstType_0::FloatCmp            0      0.00%     51.89% # Number of instructions issued per FU type, per thread (Count)
system.cpu.statIssuedInstType_0::FloatCvt            0      0.00%     51.89% # Number of instructions issued per FU type, per thread (Count)
system.cpu.statIssuedInstType_0::FloatMult            0      0.00%     51.89% # Number of instructions issued per FU type, per thread (Count)
system.cpu.statIssuedInstType_0::FloatMultAcc            0      0.00%     51.89% # Number of instructions issued per FU type, per thread (Count)
system.cpu.statIssuedInstType_0::FloatDiv            0      0.00%     51.89% # Number of instructions issued per FU type, per thread (Count)
system.cpu.statIssuedInstType_0::FloatMisc            0      0.00%     51.89% # Number of instructions issued per FU type, per thread (Count)
system.cpu.statIssuedInstType_0::FloatSqrt            0      0.00%     51.89% # Number of instructions issued per FU type, per thread (Count)
system.cpu.statIssuedInstType_0::SimdAdd            0      0.00%     51.89% # Number of instructions issued per FU type, per thread (Count)
system.cpu.statIssuedInstType_0::SimdAddAcc            0      0.00%     51.89% # Number of instructions issued per FU type, per thread (Count)
system.cpu.statIssuedInstType_0::SimdAlu            0      0.00%     51.89% # Number of instructions issued per FU type, per thread (Count)
system.cpu.statIssuedInstType_0::SimdCmp            0      0.00%     51.89% # Number of instructions issued per FU type, per thread (Count)
system.cpu.statIssuedInstType_0::SimdCvt            0      0.00%     51.89% # Number of instructions issued per FU type, per thread (Count)
system.cpu.statIssuedInstType_0::SimdMisc            0      0.00%     51.89% # Number of instructions issued per FU type, per thread (Count)
system.cpu.statIssuedInstType_0::SimdMult            0      0.00%     51.89% # Number of instructions issued per FU type, per thread (Count)
system.cpu.statIssuedInstType_0::SimdMultAcc            0      0.00%     51.89% # Number of instructions issued per FU type, per thread (Count)
system.cpu.statIssuedInstType_0::SimdShift            0      0.00%     51.89% # Number of instructions issued per FU type, per thread (Count)
system.cpu.statIssuedInstType_0::SimdShiftAcc            0      0.00%     51.89% # Number of instructions issued per FU type, per thread (Count)
system.cpu.statIssuedInstType_0::SimdDiv            0      0.00%     51.89% # Number of instructions issued per FU type, per thread (Count)
system.cpu.statIssuedInstType_0::SimdSqrt            0      0.00%     51.89% # Number of instructions issued per FU type, per thread (Count)
system.cpu.statIssuedInstType_0::SimdFloatAdd            0      0.00%     51.89% # Number of instructions issued per FU type, per thread (Count)
system.cpu.statIssuedInstType_0::SimdFloatAlu            0      0.00%     51.89% # Number of instructions issued per FU type, per thread (Count)
system.cpu.statIssuedInstType_0::SimdFloatCmp            0      0.00%     51.89% # Number of instructions issued per FU type, per thread (Count)
system.cpu.statIssuedInstType_0::SimdFloatCvt            0      0.00%     51.89% # Number of instructions issued per FU type, per thread (Count)
system.cpu.statIssuedInstType_0::SimdFloatDiv            0      0.00%     51.89% # Number of instructions issued per FU type, per thread (Count)
system.cpu.statIssuedInstType_0::SimdFloatMisc            0      0.00%     51.89% # Number of instructions issued per FU type, per thread (Count)
system.cpu.statIssuedInstType_0::SimdFloatMult            0      0.00%     51.89% # Number of instructions issued per FU type, per thread (Count)
system.cpu.statIssuedInstType_0::SimdFloatMultAcc            0      0.00%     51.89% # Number of instructions issued per FU type, per thread (Count)
system.cpu.statIssuedInstType_0::SimdFloatSqrt            0      0.00%     51.89% # Number of instructions issued per FU type, per thread (Count)
system.cpu.statIssuedInstType_0::SimdReduceAdd            0      0.00%     51.89% # Number of instructions issued per FU type, per thread (Count)
system.cpu.statIssuedInstType_0::SimdReduceAlu            0      0.00%     51.89% # Number of instructions issued per FU type, per thread (Count)
system.cpu.statIssuedInstType_0::SimdReduceCmp            0      0.00%     51.89% # Number of instructions issued per FU type, per thread (Count)
system.cpu.statIssuedInstType_0::SimdFloatReduceAdd            0      0.00%     51.89% # Number of instructions issued per FU type, per thread (Count)
system.cpu.statIssuedInstType_0::SimdFloatReduceCmp            0      0.00%     51.89% # Number of instructions issued per FU type, per thread (Count)
system.cpu.statIssuedInstType_0::SimdAes            0      0.00%     51.89% # Number of instructions issued per FU type, per thread (Count)
system.cpu.statIssuedInstType_0::SimdAesMix            0      0.00%     51.89% # Number of instructions issued per FU type, per thread (Count)
system.cpu.statIssuedInstType_0::SimdSha1Hash            0      0.00%     51.89% # Number of instructions issued per FU type, per thread (Count)
system.cpu.statIssuedInstType_0::SimdSha1Hash2            0      0.00%     51.89% # Number of instructions issued per FU type, per thread (Count)
system.cpu.statIssuedInstType_0::SimdSha256Hash            0      0.00%     51.89% # Number of instructions issued per FU type, per thread (Count)
system.cpu.statIssuedInstType_0::SimdSha256Hash2            0      0.00%     51.89% # Number of instructions issued per FU type, per thread (Count)
system.cpu.statIssuedInstType_0::SimdShaSigma2            0      0.00%     51.89% # Number of instructions issued per FU type, per thread (Count)
system.cpu.statIssuedInstType_0::SimdShaSigma3            0      0.00%     51.89% # Number of instructions issued per FU type, per thread (Count)
system.cpu.statIssuedInstType_0::SimdPredAlu            0      0.00%     51.89% # Number of instructions issued per FU type, per thread (Count)
system.cpu.statIssuedInstType_0::MemRead      1978242     12.73%     64.62% # Number of instructions issued per FU type, per thread (Count)
system.cpu.statIssuedInstType_0::MemWrite      5499453     35.38%    100.00% # Number of instructions issued per FU type, per thread (Count)
system.cpu.statIssuedInstType_0::FloatMemRead            0      0.00%    100.00% # Number of instructions issued per FU type, per thread (Count)
system.cpu.statIssuedInstType_0::FloatMemWrite            0      0.00%    100.00% # Number of instructions issued per FU type, per thread (Count)
system.cpu.statIssuedInstType_0::IprAccess            0      0.00%    100.00% # Number of instructions issued per FU type, per thread (Count)
system.cpu.statIssuedInstType_0::InstPrefetch            0      0.00%    100.00% # Number of instructions issued per FU type, per thread (Count)
system.cpu.statIssuedInstType_0::total       15544021                       # Number of instructions issued per FU type, per thread (Count)
system.cpu.issueRate                         0.605589                       # Inst issue rate ((Count/Cycle))
system.cpu.fuBusy                               83938                       # FU busy when requested (Count)
system.cpu.fuBusyRate                        0.005400                       # FU busy rate (busy events/executed inst) ((Count/Count))
system.cpu.intInstQueueReads                 56805370                       # Number of integer instruction queue reads (Count)
system.cpu.intInstQueueWrites                15944717                       # Number of integer instruction queue writes (Count)
system.cpu.intInstQueueWakeupAccesses        15456307                       # Number of integer instruction queue wakeup accesses (Count)
system.cpu.fpInstQueueReads                         0                       # Number of floating instruction queue reads (Count)
system.cpu.fpInstQueueWrites                        0                       # Number of floating instruction queue writes (Count)
system.cpu.fpInstQueueWakeupAccesses                0                       # Number of floating instruction queue wakeup accesses (Count)
system.cpu.vecInstQueueReads                        0                       # Number of vector instruction queue reads (Count)
system.cpu.vecInstQueueWrites                       0                       # Number of vector instruction queue writes (Count)
system.cpu.vecInstQueueWakeupAccesses               0                       # Number of vector instruction queue wakeup accesses (Count)
system.cpu.intAluAccesses                    15627957                       # Number of integer alu accesses (Count)
system.cpu.fpAluAccesses                            0                       # Number of floating point alu accesses (Count)
system.cpu.vecAluAccesses                           0                       # Number of vector alu accesses (Count)
system.cpu.idleCycles                               0                       # Number of cycles IEW is idle (Cycle)
system.cpu.squashCycles                          6454                       # Number of cycles IEW is squashing (Cycle)
system.cpu.blockCycles                          34423                       # Number of cycles IEW is blocking (Cycle)
system.cpu.unblockCycles                        76475                       # Number of cycles IEW is unblocking (Cycle)
system.cpu.dispatchedInsts                   15558072                       # Number of instructions dispatched to IQ (Count)
system.cpu.dispSquashedInsts                      239                       # Number of squashed instructions skipped by dispatch (Count)
system.cpu.dispLoadInsts                      1975327                       # Number of dispatched load instructions (Count)
system.cpu.dispStoreInsts                     5502022                       # Number of dispatched store instructions (Count)
system.cpu.dispNonSpecInsts                        37                       # Number of dispatched non-speculative instructions (Count)
system.cpu.iqFullEvents                           216                       # Number of times the IQ has become full, causing a stall (Count)
system.cpu.lsqFullEvents                        75828                       # Number of times the LSQ has become full, causing a stall (Count)
system.cpu.memOrderViolationEvents                119                       # Number of memory order violations (Count)
system.cpu.predictedTakenIncorrect                774                       # Number of branches that were predicted taken incorrectly (Count)
system.cpu.predictedNotTakenIncorrect             591                       # Number of branches that were predicted not taken incorrectly (Count)
system.cpu.branchMispredicts                     1365                       # Number of branch mispredicts detected at execute (Count)
system.cpu.numInsts                          15542460                       # Number of executed instructions (Count)
system.cpu.numLoadInsts                       1977557                       # Number of load instructions executed (Count)
system.cpu.numSquashedInsts                      1558                       # Number of squashed instructions skipped in execute (Count)
system.cpu.numSwp                                   0                       # Number of swp insts executed (Count)
system.cpu.numNop                                   0                       # Number of nop insts executed (Count)
system.cpu.numRefs                            7476889                       # Number of memory reference insts executed (Count)
system.cpu.numBranches                         710232                       # Number of branches executed (Count)
system.cpu.numStoreInsts                      5499332                       # Number of stores executed (Count)
system.cpu.numRate                           0.605528                       # Inst execution rate ((Count/Cycle))
system.cpu.instsToCommit                     15535306                       # Cumulative count of insts sent to commit (Count)
system.cpu.writebackCount                    15456307                       # Cumulative count of insts written-back (Count)
system.cpu.producerInst                       8857870                       # Number of instructions producing a value (Count)
system.cpu.consumerInst                      31094439                       # Number of instructions consuming a value (Count)
system.cpu.wbRate                            0.602171                       # Insts written-back per cycle ((Count/Cycle))
system.cpu.wbFanout                          0.284870                       # Average fanout of values written-back ((Count/Count))
system.cpu.timesIdled                             580                       # Number of times that the entire CPU went into an idle state and unscheduled itself (Count)
system.cpu.idleCycles                           34285                       # Total number of cycles that the CPU has spent unscheduled due to idling (Cycle)
system.cpu.committedInsts                    10000000                       # Number of Instructions Simulated (Count)
system.cpu.committedOps                      15171534                       # Number of Ops (including micro ops) Simulated (Count)
system.cpu.cpi                               2.566762                       # CPI: Cycles Per Instruction ((Cycle/Count))
system.cpu.totalCpi                          2.566762                       # CPI: Total CPI of All Threads ((Cycle/Count))
system.cpu.ipc                               0.389596                       # IPC: Instructions Per Cycle ((Count/Cycle))
system.cpu.totalIpc                          0.389596                       # IPC: Total IPC of All Threads ((Count/Cycle))
system.cpu.intRegfileReads                   21281404                       # Number of integer regfile reads (Count)
system.cpu.intRegfileWrites                   9072820                       # Number of integer regfile writes (Count)
system.cpu.vecRegfileReads                         16                       # number of vector regfile reads (Count)
system.cpu.ccRegfileReads                    52538212                       # number of cc regfile reads (Count)
system.cpu.ccRegfileWrites                    8758510                       # number of cc regfile writes (Count)
system.cpu.miscRegfileReads                  30773393                       # number of misc regfile reads (Count)
system.cpu.miscRegfileWrites                       81                       # number of misc regfile writes (Count)
system.cpu.MemDepUnit__0.insertedLoads        1975327                       # Number of loads inserted to the mem dependence unit. (Count)
system.cpu.MemDepUnit__0.insertedStores       5502022                       # Number of stores inserted to the mem dependence unit. (Count)
system.cpu.MemDepUnit__0.conflictingLoads       155017                       # Number of conflicting loads. (Count)
system.cpu.MemDepUnit__0.conflictingStores        22055                       # Number of conflicting stores. (Count)
system.cpu.MemDepUnit__1.insertedLoads              0                       # Number of loads inserted to the mem dependence unit. (Count)
system.cpu.MemDepUnit__1.insertedStores             0                       # Number of stores inserted to the mem dependence unit. (Count)
system.cpu.MemDepUnit__1.conflictingLoads            0                       # Number of conflicting loads. (Count)
system.cpu.MemDepUnit__1.conflictingStores            0                       # Number of conflicting stores. (Count)
system.cpu.MemDepUnit__2.insertedLoads              0                       # Number of loads inserted to the mem dependence unit. (Count)
system.cpu.MemDepUnit__2.insertedStores             0                       # Number of stores inserted to the mem dependence unit. (Count)
system.cpu.MemDepUnit__2.conflictingLoads            0                       # Number of conflicting loads. (Count)
system.cpu.MemDepUnit__2.conflictingStores            0                       # Number of conflicting stores. (Count)
system.cpu.MemDepUnit__3.insertedLoads              0                       # Number of loads inserted to the mem dependence unit. (Count)
system.cpu.MemDepUnit__3.insertedStores             0                       # Number of stores inserted to the mem dependence unit. (Count)
system.cpu.MemDepUnit__3.conflictingLoads            0                       # Number of conflicting loads. (Count)
system.cpu.MemDepUnit__3.conflictingStores            0                       # Number of conflicting stores. (Count)
system.cpu.branchPred.lookups                  734214                       # Number of BP lookups (Count)
system.cpu.branchPred.condPredicted            726712                       # Number of conditional branches predicted (Count)
system.cpu.branchPred.condIncorrect              1524                       # Number of conditional branches incorrect (Count)
system.cpu.branchPred.BTBLookups               728037                       # Number of BTB lookups (Count)
system.cpu.branchPred.BTBHits                  727551                       # Number of BTB hits (Count)
system.cpu.branchPred.BTBMissPct             0.000668                       # BTB Miss Percentage (Ratio)
system.cpu.branchPred.BTBHitRatio            0.999332                       # BTB Hit Ratio (Ratio)
system.cpu.branchPred.RASUsed                    2432                       # Number of times the RAS was used to get a target. (Count)
system.cpu.branchPred.RASIncorrect                 43                       # Number of incorrect RAS predictions. (Count)
system.cpu.branchPred.indirectLookups             199                       # Number of indirect predictor lookups. (Count)
system.cpu.branchPred.indirectHits                 23                       # Number of indirect target hits. (Count)
system.cpu.branchPred.indirectMisses              176                       # Number of indirect misses. (Count)
system.cpu.branchPred.indirectMispredicted           63                       # Number of mispredicted indirect branches. (Count)
system.cpu.commit.commitSquashedInsts          235428                       # The number of squashed insts skipped by commit (Count)
system.cpu.commit.commitNonSpecStalls              52                       # The number of times commit has been forced to stall to communicate backwards (Count)
system.cpu.commit.branchMispredicts              1288                       # The number of times a branch was mispredicted (Count)
system.cpu.commit.numCommittedDist::samples     25602489                       # Number of insts commited each cycle (Count)
system.cpu.commit.numCommittedDist::mean     0.592580                       # Number of insts commited each cycle (Count)
system.cpu.commit.numCommittedDist::stdev     1.536853                       # Number of insts commited each cycle (Count)
system.cpu.commit.numCommittedDist::underflows            0      0.00%      0.00% # Number of insts commited each cycle (Count)
system.cpu.commit.numCommittedDist::0        21282524     83.13%     83.13% # Number of insts commited each cycle (Count)
system.cpu.commit.numCommittedDist::1         1077194      4.21%     87.33% # Number of insts commited each cycle (Count)
system.cpu.commit.numCommittedDist::2          117013      0.46%     87.79% # Number of insts commited each cycle (Count)
system.cpu.commit.numCommittedDist::3          657258      2.57%     90.36% # Number of insts commited each cycle (Count)
system.cpu.commit.numCommittedDist::4         1572058      6.14%     96.50% # Number of insts commited each cycle (Count)
system.cpu.commit.numCommittedDist::5          502677      1.96%     98.46% # Number of insts commited each cycle (Count)
system.cpu.commit.numCommittedDist::6           13952      0.05%     98.52% # Number of insts commited each cycle (Count)
system.cpu.commit.numCommittedDist::7           35293      0.14%     98.65% # Number of insts commited each cycle (Count)
system.cpu.commit.numCommittedDist::8          344520      1.35%    100.00% # Number of insts commited each cycle (Count)
system.cpu.commit.numCommittedDist::overflows            0      0.00%    100.00% # Number of insts commited each cycle (Count)
system.cpu.commit.numCommittedDist::min_value            0                       # Number of insts commited each cycle (Count)
system.cpu.commit.numCommittedDist::max_value            8                       # Number of insts commited each cycle (Count)
system.cpu.commit.numCommittedDist::total     25602489                       # Number of insts commited each cycle (Count)
system.cpu.commit.instsCommitted             10000000                       # Number of instructions committed (Count)
system.cpu.commit.opsCommitted               15171534                       # Number of ops (including micro ops) committed (Count)
system.cpu.commit.memRefs                     7297693                       # Number of memory references committed (Count)
system.cpu.commit.loads                       1965036                       # Number of loads committed (Count)
system.cpu.commit.amos                              0                       # Number of atomic instructions committed (Count)
system.cpu.commit.membars                          20                       # Number of memory barriers committed (Count)
system.cpu.commit.branches                     688478                       # Number of branches committed (Count)
system.cpu.commit.vectorInstructions                0                       # Number of committed Vector instructions. (Count)
system.cpu.commit.floating                          0                       # Number of committed floating point instructions. (Count)
system.cpu.commit.integer                    14487576                       # Number of committed integer instructions. (Count)
system.cpu.commit.functionCalls                  2204                       # Number of function calls committed. (Count)
system.cpu.commit.committedInstType_0::No_OpClass            0      0.00%      0.00% # Class of committed instruction (Count)
system.cpu.commit.committedInstType_0::IntAlu      7873835     51.90%     51.90% # Class of committed instruction (Count)
system.cpu.commit.committedInstType_0::IntMult            6      0.00%     51.90% # Class of committed instruction (Count)
system.cpu.commit.committedInstType_0::IntDiv            0      0.00%     51.90% # Class of committed instruction (Count)
system.cpu.commit.committedInstType_0::FloatAdd            0      0.00%     51.90% # Class of committed instruction (Count)
system.cpu.commit.committedInstType_0::FloatCmp            0      0.00%     51.90% # Class of committed instruction (Count)
system.cpu.commit.committedInstType_0::FloatCvt            0      0.00%     51.90% # Class of committed instruction (Count)
system.cpu.commit.committedInstType_0::FloatMult            0      0.00%     51.90% # Class of committed instruction (Count)
system.cpu.commit.committedInstType_0::FloatMultAcc            0      0.00%     51.90% # Class of committed instruction (Count)
system.cpu.commit.committedInstType_0::FloatDiv            0      0.00%     51.90% # Class of committed instruction (Count)
system.cpu.commit.committedInstType_0::FloatMisc            0      0.00%     51.90% # Class of committed instruction (Count)
system.cpu.commit.committedInstType_0::FloatSqrt            0      0.00%     51.90% # Class of committed instruction (Count)
system.cpu.commit.committedInstType_0::SimdAdd            0      0.00%     51.90% # Class of committed instruction (Count)
system.cpu.commit.committedInstType_0::SimdAddAcc            0      0.00%     51.90% # Class of committed instruction (Count)
system.cpu.commit.committedInstType_0::SimdAlu            0      0.00%     51.90% # Class of committed instruction (Count)
system.cpu.commit.committedInstType_0::SimdCmp            0      0.00%     51.90% # Class of committed instruction (Count)
system.cpu.commit.committedInstType_0::SimdCvt            0      0.00%     51.90% # Class of committed instruction (Count)
system.cpu.commit.committedInstType_0::SimdMisc            0      0.00%     51.90% # Class of committed instruction (Count)
system.cpu.commit.committedInstType_0::SimdMult            0      0.00%     51.90% # Class of committed instruction (Count)
system.cpu.commit.committedInstType_0::SimdMultAcc            0      0.00%     51.90% # Class of committed instruction (Count)
system.cpu.commit.committedInstType_0::SimdShift            0      0.00%     51.90% # Class of committed instruction (Count)
system.cpu.commit.committedInstType_0::SimdShiftAcc            0      0.00%     51.90% # Class of committed instruction (Count)
system.cpu.commit.committedInstType_0::SimdDiv            0      0.00%     51.90% # Class of committed instruction (Count)
system.cpu.commit.committedInstType_0::SimdSqrt            0      0.00%     51.90% # Class of committed instruction (Count)
system.cpu.commit.committedInstType_0::SimdFloatAdd            0      0.00%     51.90% # Class of committed instruction (Count)
system.cpu.commit.committedInstType_0::SimdFloatAlu            0      0.00%     51.90% # Class of committed instruction (Count)
system.cpu.commit.committedInstType_0::SimdFloatCmp            0      0.00%     51.90% # Class of committed instruction (Count)
system.cpu.commit.committedInstType_0::SimdFloatCvt            0      0.00%     51.90% # Class of committed instruction (Count)
system.cpu.commit.committedInstType_0::SimdFloatDiv            0      0.00%     51.90% # Class of committed instruction (Count)
system.cpu.commit.committedInstType_0::SimdFloatMisc            0      0.00%     51.90% # Class of committed instruction (Count)
system.cpu.commit.committedInstType_0::SimdFloatMult            0      0.00%     51.90% # Class of committed instruction (Count)
system.cpu.commit.committedInstType_0::SimdFloatMultAcc            0      0.00%     51.90% # Class of committed instruction (Count)
system.cpu.commit.committedInstType_0::SimdFloatSqrt            0      0.00%     51.90% # Class of committed instruction (Count)
system.cpu.commit.committedInstType_0::SimdReduceAdd            0      0.00%     51.90% # Class of committed instruction (Count)
system.cpu.commit.committedInstType_0::SimdReduceAlu            0      0.00%     51.90% # Class of committed instruction (Count)
system.cpu.commit.committedInstType_0::SimdReduceCmp            0      0.00%     51.90% # Class of committed instruction (Count)
system.cpu.commit.committedInstType_0::SimdFloatReduceAdd            0      0.00%     51.90% # Class of committed instruction (Count)
system.cpu.commit.committedInstType_0::SimdFloatReduceCmp            0      0.00%     51.90% # Class of committed instruction (Count)
system.cpu.commit.committedInstType_0::SimdAes            0      0.00%     51.90% # Class of committed instruction (Count)
system.cpu.commit.committedInstType_0::SimdAesMix            0      0.00%     51.90% # Class of committed instruction (Count)
system.cpu.commit.committedInstType_0::SimdSha1Hash            0      0.00%     51.90% # Class of committed instruction (Count)
system.cpu.commit.committedInstType_0::SimdSha1Hash2            0      0.00%     51.90% # Class of committed instruction (Count)
system.cpu.commit.committedInstType_0::SimdSha256Hash            0      0.00%     51.90% # Class of committed instruction (Count)
system.cpu.commit.committedInstType_0::SimdSha256Hash2            0      0.00%     51.90% # Class of committed instruction (Count)
system.cpu.commit.committedInstType_0::SimdShaSigma2            0      0.00%     51.90% # Class of committed instruction (Count)
system.cpu.commit.committedInstType_0::SimdShaSigma3            0      0.00%     51.90% # Class of committed instruction (Count)
system.cpu.commit.committedInstType_0::SimdPredAlu            0      0.00%     51.90% # Class of committed instruction (Count)
system.cpu.commit.committedInstType_0::MemRead      1965036     12.95%     64.85% # Class of committed instruction (Count)
system.cpu.commit.committedInstType_0::MemWrite      5332657     35.15%    100.00% # Class of committed instruction (Count)
system.cpu.commit.committedInstType_0::FloatMemRead            0      0.00%    100.00% # Class of committed instruction (Count)
system.cpu.commit.committedInstType_0::FloatMemWrite            0      0.00%    100.00% # Class of committed instruction (Count)
system.cpu.commit.committedInstType_0::IprAccess            0      0.00%    100.00% # Class of committed instruction (Count)
system.cpu.commit.committedInstType_0::InstPrefetch            0      0.00%    100.00% # Class of committed instruction (Count)
system.cpu.commit.committedInstType_0::total     15171534                       # Class of committed instruction (Count)
system.cpu.commit.commitEligibleSamples        344520                       # number cycles where commit BW limit reached (Cycle)
system.cpu.dcache.demandHits::cpu.data        1989084                       # number of demand (read+write) hits (Count)
system.cpu.dcache.demandHits::total           1989084                       # number of demand (read+write) hits (Count)
system.cpu.dcache.overallHits::cpu.data       1989084                       # number of overall hits (Count)
system.cpu.dcache.overallHits::total          1989084                       # number of overall hits (Count)
system.cpu.dcache.demandMisses::cpu.data      5137435                       # number of demand (read+write) misses (Count)
system.cpu.dcache.demandMisses::total         5137435                       # number of demand (read+write) misses (Count)
system.cpu.dcache.overallMisses::cpu.data      5137435                       # number of overall misses (Count)
system.cpu.dcache.overallMisses::total        5137435                       # number of overall misses (Count)
system.cpu.dcache.demandMissLatency::cpu.data 360638333897                       # number of demand (read+write) miss ticks (Tick)
system.cpu.dcache.demandMissLatency::total 360638333897                       # number of demand (read+write) miss ticks (Tick)
system.cpu.dcache.overallMissLatency::cpu.data 360638333897                       # number of overall miss ticks (Tick)
system.cpu.dcache.overallMissLatency::total 360638333897                       # number of overall miss ticks (Tick)
system.cpu.dcache.demandAccesses::cpu.data      7126519                       # number of demand (read+write) accesses (Count)
system.cpu.dcache.demandAccesses::total       7126519                       # number of demand (read+write) accesses (Count)
system.cpu.dcache.overallAccesses::cpu.data      7126519                       # number of overall (read+write) accesses (Count)
system.cpu.dcache.overallAccesses::total      7126519                       # number of overall (read+write) accesses (Count)
system.cpu.dcache.demandMissRate::cpu.data     0.720890                       # miss rate for demand accesses (Ratio)
system.cpu.dcache.demandMissRate::total      0.720890                       # miss rate for demand accesses (Ratio)
system.cpu.dcache.overallMissRate::cpu.data     0.720890                       # miss rate for overall accesses (Ratio)
system.cpu.dcache.overallMissRate::total     0.720890                       # miss rate for overall accesses (Ratio)
system.cpu.dcache.demandAvgMissLatency::cpu.data 70198.130759                       # average overall miss latency ((Cycle/Count))
system.cpu.dcache.demandAvgMissLatency::total 70198.130759                       # average overall miss latency ((Cycle/Count))
system.cpu.dcache.overallAvgMissLatency::cpu.data 70198.130759                       # average overall miss latency ((Cycle/Count))
system.cpu.dcache.overallAvgMissLatency::total 70198.130759                       # average overall miss latency ((Cycle/Count))
system.cpu.dcache.blockedCycles::no_mshrs        21895                       # number of cycles access was blocked (Cycle)
system.cpu.dcache.blockedCycles::no_targets            0                       # number of cycles access was blocked (Cycle)
system.cpu.dcache.blockedCauses::no_mshrs          517                       # number of times access was blocked (Count)
system.cpu.dcache.blockedCauses::no_targets            0                       # number of times access was blocked (Count)
system.cpu.dcache.avgBlocked::no_mshrs      42.350097                       # average number of cycles each access was blocked ((Cycle/Count))
system.cpu.dcache.avgBlocked::no_targets          nan                       # average number of cycles each access was blocked ((Cycle/Count))
system.cpu.dcache.writebacks::writebacks       341437                       # number of writebacks (Count)
system.cpu.dcache.writebacks::total            341437                       # number of writebacks (Count)
system.cpu.dcache.demandMshrHits::cpu.data      4784407                       # number of demand (read+write) MSHR hits (Count)
system.cpu.dcache.demandMshrHits::total       4784407                       # number of demand (read+write) MSHR hits (Count)
system.cpu.dcache.overallMshrHits::cpu.data      4784407                       # number of overall MSHR hits (Count)
system.cpu.dcache.overallMshrHits::total      4784407                       # number of overall MSHR hits (Count)
system.cpu.dcache.demandMshrMisses::cpu.data       353028                       # number of demand (read+write) MSHR misses (Count)
system.cpu.dcache.demandMshrMisses::total       353028                       # number of demand (read+write) MSHR misses (Count)
system.cpu.dcache.overallMshrMisses::cpu.data       353028                       # number of overall MSHR misses (Count)
system.cpu.dcache.overallMshrMisses::total       353028                       # number of overall MSHR misses (Count)
system.cpu.dcache.demandMshrMissLatency::cpu.data  32823317450                       # number of demand (read+write) MSHR miss ticks (Tick)
system.cpu.dcache.demandMshrMissLatency::total  32823317450                       # number of demand (read+write) MSHR miss ticks (Tick)
system.cpu.dcache.overallMshrMissLatency::cpu.data  32823317450                       # number of overall MSHR miss ticks (Tick)
system.cpu.dcache.overallMshrMissLatency::total  32823317450                       # number of overall MSHR miss ticks (Tick)
system.cpu.dcache.demandMshrMissRate::cpu.data     0.049537                       # mshr miss ratio for demand accesses (Ratio)
system.cpu.dcache.demandMshrMissRate::total     0.049537                       # mshr miss ratio for demand accesses (Ratio)
system.cpu.dcache.overallMshrMissRate::cpu.data     0.049537                       # mshr miss ratio for overall accesses (Ratio)
system.cpu.dcache.overallMshrMissRate::total     0.049537                       # mshr miss ratio for overall accesses (Ratio)
system.cpu.dcache.demandAvgMshrMissLatency::cpu.data 92976.527216                       # average overall mshr miss latency ((Cycle/Count))
system.cpu.dcache.demandAvgMshrMissLatency::total 92976.527216                       # average overall mshr miss latency ((Cycle/Count))
system.cpu.dcache.overallAvgMshrMissLatency::cpu.data 92976.527216                       # average overall mshr miss latency ((Cycle/Count))
system.cpu.dcache.overallAvgMshrMissLatency::total 92976.527216                       # average overall mshr miss latency ((Cycle/Count))
system.cpu.dcache.replacements                 352994                       # number of replacements (Count)
system.cpu.dcache.LoadLockedReq.hits::cpu.data           18                       # number of LoadLockedReq hits (Count)
system.cpu.dcache.LoadLockedReq.hits::total           18                       # number of LoadLockedReq hits (Count)
system.cpu.dcache.LoadLockedReq.misses::cpu.data            2                       # number of LoadLockedReq misses (Count)
system.cpu.dcache.LoadLockedReq.misses::total            2                       # number of LoadLockedReq misses (Count)
system.cpu.dcache.LoadLockedReq.missLatency::cpu.data        25500                       # number of LoadLockedReq miss ticks (Tick)
system.cpu.dcache.LoadLockedReq.missLatency::total        25500                       # number of LoadLockedReq miss ticks (Tick)
system.cpu.dcache.LoadLockedReq.accesses::cpu.data           20                       # number of LoadLockedReq accesses(hits+misses) (Count)
system.cpu.dcache.LoadLockedReq.accesses::total           20                       # number of LoadLockedReq accesses(hits+misses) (Count)
system.cpu.dcache.LoadLockedReq.missRate::cpu.data     0.100000                       # miss rate for LoadLockedReq accesses (Ratio)
system.cpu.dcache.LoadLockedReq.missRate::total     0.100000                       # miss rate for LoadLockedReq accesses (Ratio)
system.cpu.dcache.LoadLockedReq.avgMissLatency::cpu.data        12750                       # average LoadLockedReq miss latency ((Tick/Count))
system.cpu.dcache.LoadLockedReq.avgMissLatency::total        12750                       # average LoadLockedReq miss latency ((Tick/Count))
system.cpu.dcache.LoadLockedReq.mshrHits::cpu.data            2                       # number of LoadLockedReq MSHR hits (Count)
system.cpu.dcache.LoadLockedReq.mshrHits::total            2                       # number of LoadLockedReq MSHR hits (Count)
system.cpu.dcache.ReadReq.hits::cpu.data      1762565                       # number of ReadReq hits (Count)
system.cpu.dcache.ReadReq.hits::total         1762565                       # number of ReadReq hits (Count)
system.cpu.dcache.ReadReq.misses::cpu.data        31441                       # number of ReadReq misses (Count)
system.cpu.dcache.ReadReq.misses::total         31441                       # number of ReadReq misses (Count)
system.cpu.dcache.ReadReq.missLatency::cpu.data    456048000                       # number of ReadReq miss ticks (Tick)
system.cpu.dcache.ReadReq.missLatency::total    456048000                       # number of ReadReq miss ticks (Tick)
system.cpu.dcache.ReadReq.accesses::cpu.data      1794006                       # number of ReadReq accesses(hits+misses) (Count)
system.cpu.dcache.ReadReq.accesses::total      1794006                       # number of ReadReq accesses(hits+misses) (Count)
system.cpu.dcache.ReadReq.missRate::cpu.data     0.017526                       # miss rate for ReadReq accesses (Ratio)
system.cpu.dcache.ReadReq.missRate::total     0.017526                       # miss rate for ReadReq accesses (Ratio)
system.cpu.dcache.ReadReq.avgMissLatency::cpu.data 14504.882160                       # average ReadReq miss latency ((Tick/Count))
system.cpu.dcache.ReadReq.avgMissLatency::total 14504.882160                       # average ReadReq miss latency ((Tick/Count))
system.cpu.dcache.ReadReq.mshrHits::cpu.data        18707                       # number of ReadReq MSHR hits (Count)
system.cpu.dcache.ReadReq.mshrHits::total        18707                       # number of ReadReq MSHR hits (Count)
system.cpu.dcache.ReadReq.mshrMisses::cpu.data        12734                       # number of ReadReq MSHR misses (Count)
system.cpu.dcache.ReadReq.mshrMisses::total        12734                       # number of ReadReq MSHR misses (Count)
system.cpu.dcache.ReadReq.mshrMissLatency::cpu.data    177809500                       # number of ReadReq MSHR miss ticks (Tick)
system.cpu.dcache.ReadReq.mshrMissLatency::total    177809500                       # number of ReadReq MSHR miss ticks (Tick)
system.cpu.dcache.ReadReq.mshrMissRate::cpu.data     0.007098                       # mshr miss rate for ReadReq accesses (Ratio)
system.cpu.dcache.ReadReq.mshrMissRate::total     0.007098                       # mshr miss rate for ReadReq accesses (Ratio)
system.cpu.dcache.ReadReq.avgMshrMissLatency::cpu.data 13963.365792                       # average ReadReq mshr miss latency ((Tick/Count))
system.cpu.dcache.ReadReq.avgMshrMissLatency::total 13963.365792                       # average ReadReq mshr miss latency ((Tick/Count))
system.cpu.dcache.StoreCondReq.hits::cpu.data           20                       # number of StoreCondReq hits (Count)
system.cpu.dcache.StoreCondReq.hits::total           20                       # number of StoreCondReq hits (Count)
system.cpu.dcache.StoreCondReq.accesses::cpu.data           20                       # number of StoreCondReq accesses(hits+misses) (Count)
system.cpu.dcache.StoreCondReq.accesses::total           20                       # number of StoreCondReq accesses(hits+misses) (Count)
system.cpu.dcache.WriteReq.hits::cpu.data       226519                       # number of WriteReq hits (Count)
system.cpu.dcache.WriteReq.hits::total         226519                       # number of WriteReq hits (Count)
system.cpu.dcache.WriteReq.misses::cpu.data      5105994                       # number of WriteReq misses (Count)
system.cpu.dcache.WriteReq.misses::total      5105994                       # number of WriteReq misses (Count)
system.cpu.dcache.WriteReq.missLatency::cpu.data 360182285897                       # number of WriteReq miss ticks (Tick)
system.cpu.dcache.WriteReq.missLatency::total 360182285897                       # number of WriteReq miss ticks (Tick)
system.cpu.dcache.WriteReq.accesses::cpu.data      5332513                       # number of WriteReq accesses(hits+misses) (Count)
system.cpu.dcache.WriteReq.accesses::total      5332513                       # number of WriteReq accesses(hits+misses) (Count)
system.cpu.dcache.WriteReq.missRate::cpu.data     0.957521                       # miss rate for WriteReq accesses (Ratio)
system.cpu.dcache.WriteReq.missRate::total     0.957521                       # miss rate for WriteReq accesses (Ratio)
system.cpu.dcache.WriteReq.avgMissLatency::cpu.data 70541.071121                       # average WriteReq miss latency ((Tick/Count))
system.cpu.dcache.WriteReq.avgMissLatency::total 70541.071121                       # average WriteReq miss latency ((Tick/Count))
system.cpu.dcache.WriteReq.mshrHits::cpu.data      4765700                       # number of WriteReq MSHR hits (Count)
system.cpu.dcache.WriteReq.mshrHits::total      4765700                       # number of WriteReq MSHR hits (Count)
system.cpu.dcache.WriteReq.mshrMisses::cpu.data       340294                       # number of WriteReq MSHR misses (Count)
system.cpu.dcache.WriteReq.mshrMisses::total       340294                       # number of WriteReq MSHR misses (Count)
system.cpu.dcache.WriteReq.mshrMissLatency::cpu.data  32645507950                       # number of WriteReq MSHR miss ticks (Tick)
system.cpu.dcache.WriteReq.mshrMissLatency::total  32645507950                       # number of WriteReq MSHR miss ticks (Tick)
system.cpu.dcache.WriteReq.mshrMissRate::cpu.data     0.063815                       # mshr miss rate for WriteReq accesses (Ratio)
system.cpu.dcache.WriteReq.mshrMissRate::total     0.063815                       # mshr miss rate for WriteReq accesses (Ratio)
system.cpu.dcache.WriteReq.avgMshrMissLatency::cpu.data 95933.245811                       # average WriteReq mshr miss latency ((Tick/Count))
system.cpu.dcache.WriteReq.avgMshrMissLatency::total 95933.245811                       # average WriteReq mshr miss latency ((Tick/Count))
system.cpu.dcache.power_state.pwrStateResidencyTicks::UNDEFINED  12833809500                       # Cumulative time (in ticks) in various power states (Tick)
system.cpu.dcache.tags.tagsInUse            31.996067                       # Average ticks per tags in use ((Tick/Count))
system.cpu.dcache.tags.totalRefs              2342148                       # Total number of references to valid blocks. (Count)
system.cpu.dcache.tags.sampledRefs             353026                       # Sample count of references to valid blocks. (Count)
system.cpu.dcache.tags.avgRefs               6.634492                       # Average number of references to valid blocks. ((Count/Count))
system.cpu.dcache.tags.warmupTick              161000                       # The tick when the warmup percentage was hit. (Tick)
system.cpu.dcache.tags.occupancies::cpu.data    31.996067                       # Average occupied blocks per tick, per requestor ((Count/Tick))
system.cpu.dcache.tags.avgOccs::cpu.data     0.999877                       # Average percentage of cache occupancy ((Ratio/Tick))
system.cpu.dcache.tags.avgOccs::total        0.999877                       # Average percentage of cache occupancy ((Ratio/Tick))
system.cpu.dcache.tags.occupanciesTaskId::1024           32                       # Occupied blocks per task id (Count)
system.cpu.dcache.tags.ageTaskId_1024::0           32                       # Occupied blocks per task id, per block age (Count)
system.cpu.dcache.tags.ratioOccsTaskId::1024            1                       # Ratio of occupied blocks and all blocks, per task id (Ratio)
system.cpu.dcache.tags.tagAccesses           14606144                       # Number of tag accesses (Count)
system.cpu.dcache.tags.dataAccesses          14606144                       # Number of data accesses (Count)
system.cpu.dcache.tags.power_state.pwrStateResidencyTicks::UNDEFINED  12833809500                       # Cumulative time (in ticks) in various power states (Tick)
system.cpu.decode.idleCycles                   451376                       # Number of cycles decode is idle (Cycle)
system.cpu.decode.blockedCycles              23208194                       # Number of cycles decode is blocked (Cycle)
system.cpu.decode.runCycles                   1100850                       # Number of cycles decode is running (Cycle)
system.cpu.decode.unblockCycles                866461                       # Number of cycles decode is unblocking (Cycle)
system.cpu.decode.squashCycles                   6454                       # Number of cycles decode is squashing (Cycle)
system.cpu.decode.branchResolved               712089                       # Number of times decode resolved a branch (Count)
system.cpu.decode.branchMispred                   240                       # Number of times decode detected a branch misprediction (Count)
system.cpu.decode.decodedInsts               15644788                       # Number of instructions handled by decode (Count)
system.cpu.decode.squashedInsts                   952                       # Number of squashed instructions handled by decode (Count)
system.cpu.fetch.icacheStallCycles             312714                       # Number of cycles fetch is stalled on an Icache miss (Cycle)
system.cpu.fetch.insts                       10416787                       # Number of instructions fetch has processed (Count)
system.cpu.fetch.branches                      734214                       # Number of branches that fetch encountered (Count)
system.cpu.fetch.predictedBranches             730006                       # Number of branches that fetch has predicted taken (Count)
system.cpu.fetch.cycles                      25313868                       # Number of cycles fetch has run and was not squashing or blocked (Cycle)
system.cpu.fetch.squashCycles                   13384                       # Number of cycles fetch has spent squashing (Cycle)
system.cpu.fetch.miscStallCycles                    7                       # Number of cycles fetch has spent waiting on interrupts, or bad addresses, or out of MSHRs (Cycle)
system.cpu.fetch.pendingTrapStallCycles            14                       # Number of stall cycles due to pending traps (Cycle)
system.cpu.fetch.icacheWaitRetryStallCycles           40                       # Number of stall cycles due to full MSHR (Cycle)
system.cpu.fetch.cacheLines                    296914                       # Number of cache lines fetched (Count)
system.cpu.fetch.icacheSquashes                   759                       # Number of outstanding Icache misses that were squashed (Count)
system.cpu.fetch.nisnDist::samples           25633335                       # Number of instructions fetched each cycle (Total) (Count)
system.cpu.fetch.nisnDist::mean              0.620416                       # Number of instructions fetched each cycle (Total) (Count)
system.cpu.fetch.nisnDist::stdev             2.028473                       # Number of instructions fetched each cycle (Total) (Count)
system.cpu.fetch.nisnDist::underflows               0      0.00%      0.00% # Number of instructions fetched each cycle (Total) (Count)
system.cpu.fetch.nisnDist::0                 22948166     89.52%     89.52% # Number of instructions fetched each cycle (Total) (Count)
system.cpu.fetch.nisnDist::1                   459332      1.79%     91.32% # Number of instructions fetched each cycle (Total) (Count)
system.cpu.fetch.nisnDist::2                   106271      0.41%     91.73% # Number of instructions fetched each cycle (Total) (Count)
system.cpu.fetch.nisnDist::3                   121992      0.48%     92.21% # Number of instructions fetched each cycle (Total) (Count)
system.cpu.fetch.nisnDist::4                   102937      0.40%     92.61% # Number of instructions fetched each cycle (Total) (Count)
system.cpu.fetch.nisnDist::5                   133080      0.52%     93.13% # Number of instructions fetched each cycle (Total) (Count)
system.cpu.fetch.nisnDist::6                   103130      0.40%     93.53% # Number of instructions fetched each cycle (Total) (Count)
system.cpu.fetch.nisnDist::7                    97872      0.38%     93.91% # Number of instructions fetched each cycle (Total) (Count)
system.cpu.fetch.nisnDist::8                  1560555      6.09%    100.00% # Number of instructions fetched each cycle (Total) (Count)
system.cpu.fetch.nisnDist::overflows                0      0.00%    100.00% # Number of instructions fetched each cycle (Total) (Count)
system.cpu.fetch.nisnDist::min_value                0                       # Number of instructions fetched each cycle (Total) (Count)
system.cpu.fetch.nisnDist::max_value                8                       # Number of instructions fetched each cycle (Total) (Count)
system.cpu.fetch.nisnDist::total             25633335                       # Number of instructions fetched each cycle (Total) (Count)
system.cpu.fetch.branchRate                  0.028605                       # Number of branch fetches per cycle (Ratio)
system.cpu.fetch.rate                        0.405834                       # Number of inst fetches per cycle ((Count/Cycle))
system.cpu.icache.demandHits::cpu.inst         295851                       # number of demand (read+write) hits (Count)
system.cpu.icache.demandHits::total            295851                       # number of demand (read+write) hits (Count)
system.cpu.icache.overallHits::cpu.inst        295851                       # number of overall hits (Count)
system.cpu.icache.overallHits::total           295851                       # number of overall hits (Count)
system.cpu.icache.demandMisses::cpu.inst         1063                       # number of demand (read+write) misses (Count)
system.cpu.icache.demandMisses::total            1063                       # number of demand (read+write) misses (Count)
system.cpu.icache.overallMisses::cpu.inst         1063                       # number of overall misses (Count)
system.cpu.icache.overallMisses::total           1063                       # number of overall misses (Count)
system.cpu.icache.demandMissLatency::cpu.inst     49840498                       # number of demand (read+write) miss ticks (Tick)
system.cpu.icache.demandMissLatency::total     49840498                       # number of demand (read+write) miss ticks (Tick)
system.cpu.icache.overallMissLatency::cpu.inst     49840498                       # number of overall miss ticks (Tick)
system.cpu.icache.overallMissLatency::total     49840498                       # number of overall miss ticks (Tick)
system.cpu.icache.demandAccesses::cpu.inst       296914                       # number of demand (read+write) accesses (Count)
system.cpu.icache.demandAccesses::total        296914                       # number of demand (read+write) accesses (Count)
system.cpu.icache.overallAccesses::cpu.inst       296914                       # number of overall (read+write) accesses (Count)
system.cpu.icache.overallAccesses::total       296914                       # number of overall (read+write) accesses (Count)
system.cpu.icache.demandMissRate::cpu.inst     0.003580                       # miss rate for demand accesses (Ratio)
system.cpu.icache.demandMissRate::total      0.003580                       # miss rate for demand accesses (Ratio)
system.cpu.icache.overallMissRate::cpu.inst     0.003580                       # miss rate for overall accesses (Ratio)
system.cpu.icache.overallMissRate::total     0.003580                       # miss rate for overall accesses (Ratio)
system.cpu.icache.demandAvgMissLatency::cpu.inst 46886.639699                       # average overall miss latency ((Cycle/Count))
system.cpu.icache.demandAvgMissLatency::total 46886.639699                       # average overall miss latency ((Cycle/Count))
system.cpu.icache.overallAvgMissLatency::cpu.inst 46886.639699                       # average overall miss latency ((Cycle/Count))
system.cpu.icache.overallAvgMissLatency::total 46886.639699                       # average overall miss latency ((Cycle/Count))
system.cpu.icache.blockedCycles::no_mshrs          768                       # number of cycles access was blocked (Cycle)
system.cpu.icache.blockedCycles::no_targets            0                       # number of cycles access was blocked (Cycle)
system.cpu.icache.blockedCauses::no_mshrs           15                       # number of times access was blocked (Count)
system.cpu.icache.blockedCauses::no_targets            0                       # number of times access was blocked (Count)
system.cpu.icache.avgBlocked::no_mshrs      51.200000                       # average number of cycles each access was blocked ((Cycle/Count))
system.cpu.icache.avgBlocked::no_targets          nan                       # average number of cycles each access was blocked ((Cycle/Count))
system.cpu.icache.writebacks::writebacks          843                       # number of writebacks (Count)
system.cpu.icache.writebacks::total               843                       # number of writebacks (Count)
system.cpu.icache.demandMshrHits::cpu.inst          188                       # number of demand (read+write) MSHR hits (Count)
system.cpu.icache.demandMshrHits::total           188                       # number of demand (read+write) MSHR hits (Count)
system.cpu.icache.overallMshrHits::cpu.inst          188                       # number of overall MSHR hits (Count)
system.cpu.icache.overallMshrHits::total          188                       # number of overall MSHR hits (Count)
system.cpu.icache.demandMshrMisses::cpu.inst          875                       # number of demand (read+write) MSHR misses (Count)
system.cpu.icache.demandMshrMisses::total          875                       # number of demand (read+write) MSHR misses (Count)
system.cpu.icache.overallMshrMisses::cpu.inst          875                       # number of overall MSHR misses (Count)
system.cpu.icache.overallMshrMisses::total          875                       # number of overall MSHR misses (Count)
system.cpu.icache.demandMshrMissLatency::cpu.inst     40728499                       # number of demand (read+write) MSHR miss ticks (Tick)
system.cpu.icache.demandMshrMissLatency::total     40728499                       # number of demand (read+write) MSHR miss ticks (Tick)
system.cpu.icache.overallMshrMissLatency::cpu.inst     40728499                       # number of overall MSHR miss ticks (Tick)
system.cpu.icache.overallMshrMissLatency::total     40728499                       # number of overall MSHR miss ticks (Tick)
system.cpu.icache.demandMshrMissRate::cpu.inst     0.002947                       # mshr miss ratio for demand accesses (Ratio)
system.cpu.icache.demandMshrMissRate::total     0.002947                       # mshr miss ratio for demand accesses (Ratio)
system.cpu.icache.overallMshrMissRate::cpu.inst     0.002947                       # mshr miss ratio for overall accesses (Ratio)
system.cpu.icache.overallMshrMissRate::total     0.002947                       # mshr miss ratio for overall accesses (Ratio)
system.cpu.icache.demandAvgMshrMissLatency::cpu.inst 46546.856000                       # average overall mshr miss latency ((Cycle/Count))
system.cpu.icache.demandAvgMshrMissLatency::total 46546.856000                       # average overall mshr miss latency ((Cycle/Count))
system.cpu.icache.overallAvgMshrMissLatency::cpu.inst 46546.856000                       # average overall mshr miss latency ((Cycle/Count))
system.cpu.icache.overallAvgMshrMissLatency::total 46546.856000                       # average overall mshr miss latency ((Cycle/Count))
system.cpu.icache.replacements                    843                       # number of replacements (Count)
system.cpu.icache.ReadReq.hits::cpu.inst       295851                       # number of ReadReq hits (Count)
system.cpu.icache.ReadReq.hits::total          295851                       # number of ReadReq hits (Count)
system.cpu.icache.ReadReq.misses::cpu.inst         1063                       # number of ReadReq misses (Count)
system.cpu.icache.ReadReq.misses::total          1063                       # number of ReadReq misses (Count)
system.cpu.icache.ReadReq.missLatency::cpu.inst     49840498                       # number of ReadReq miss ticks (Tick)
system.cpu.icache.ReadReq.missLatency::total     49840498                       # number of ReadReq miss ticks (Tick)
system.cpu.icache.ReadReq.accesses::cpu.inst       296914                       # number of ReadReq accesses(hits+misses) (Count)
system.cpu.icache.ReadReq.accesses::total       296914                       # number of ReadReq accesses(hits+misses) (Count)
system.cpu.icache.ReadReq.missRate::cpu.inst     0.003580                       # miss rate for ReadReq accesses (Ratio)
system.cpu.icache.ReadReq.missRate::total     0.003580                       # miss rate for ReadReq accesses (Ratio)
system.cpu.icache.ReadReq.avgMissLatency::cpu.inst 46886.639699                       # average ReadReq miss latency ((Tick/Count))
system.cpu.icache.ReadReq.avgMissLatency::total 46886.639699                       # average ReadReq miss latency ((Tick/Count))
system.cpu.icache.ReadReq.mshrHits::cpu.inst          188                       # number of ReadReq MSHR hits (Count)
system.cpu.icache.ReadReq.mshrHits::total          188                       # number of ReadReq MSHR hits (Count)
system.cpu.icache.ReadReq.mshrMisses::cpu.inst          875                       # number of ReadReq MSHR misses (Count)
system.cpu.icache.ReadReq.mshrMisses::total          875                       # number of ReadReq MSHR misses (Count)
system.cpu.icache.ReadReq.mshrMissLatency::cpu.inst     40728499                       # number of ReadReq MSHR miss ticks (Tick)
system.cpu.icache.ReadReq.mshrMissLatency::total     40728499                       # number of ReadReq MSHR miss ticks (Tick)
system.cpu.icache.ReadReq.mshrMissRate::cpu.inst     0.002947                       # mshr miss rate for ReadReq accesses (Ratio)
system.cpu.icache.ReadReq.mshrMissRate::total     0.002947                       # mshr miss rate for ReadReq accesses (Ratio)
system.cpu.icache.ReadReq.avgMshrMissLatency::cpu.inst 46546.856000                       # average ReadReq mshr miss latency ((Tick/Count))
system.cpu.icache.ReadReq.avgMshrMissLatency::total 46546.856000                       # average ReadReq mshr miss latency ((Tick/Count))
system.cpu.icache.power_state.pwrStateResidencyTicks::UNDEFINED  12833809500                       # Cumulative time (in ticks) in various power states (Tick)
system.cpu.icache.tags.tagsInUse            31.996641                       # Average ticks per tags in use ((Tick/Count))
system.cpu.icache.tags.totalRefs               296726                       # Total number of references to valid blocks. (Count)
system.cpu.icache.tags.sampledRefs                875                       # Sample count of references to valid blocks. (Count)
system.cpu.icache.tags.avgRefs             339.115429                       # Average number of references to valid blocks. ((Count/Count))
system.cpu.icache.tags.warmupTick               87500                       # The tick when the warmup percentage was hit. (Tick)
system.cpu.icache.tags.occupancies::cpu.inst    31.996641                       # Average occupied blocks per tick, per requestor ((Count/Tick))
system.cpu.icache.tags.avgOccs::cpu.inst     0.999895                       # Average percentage of cache occupancy ((Ratio/Tick))
system.cpu.icache.tags.avgOccs::total        0.999895                       # Average percentage of cache occupancy ((Ratio/Tick))
system.cpu.icache.tags.occupanciesTaskId::1024           32                       # Occupied blocks per task id (Count)
system.cpu.icache.tags.ageTaskId_1024::4           32                       # Occupied blocks per task id, per block age (Count)
system.cpu.icache.tags.ratioOccsTaskId::1024            1                       # Ratio of occupied blocks and all blocks, per task id (Ratio)
system.cpu.icache.tags.tagAccesses             594703                       # Number of tag accesses (Count)
system.cpu.icache.tags.dataAccesses            594703                       # Number of data accesses (Count)
system.cpu.icache.tags.power_state.pwrStateResidencyTicks::UNDEFINED  12833809500                       # Cumulative time (in ticks) in various power states (Tick)
system.cpu.lsq0.forwLoads                      177483                       # Number of loads that had data forwarded from stores (Count)
system.cpu.lsq0.squashedLoads                   10291                       # Number of loads squashed (Count)
system.cpu.lsq0.ignoredResponses                   57                       # Number of memory responses ignored because the instruction is squashed (Count)
system.cpu.lsq0.memOrderViolation                 119                       # Number of memory ordering violations (Count)
system.cpu.lsq0.squashedStores                 169360                       # Number of stores squashed (Count)
system.cpu.lsq0.rescheduledLoads                  104                       # Number of loads that were rescheduled (Count)
system.cpu.lsq0.blockedByCache                    506                       # Number of times an access to memory failed due to the cache being blocked (Count)
system.cpu.lsq0.loadToUse::samples            1965036                       # Distribution of cycle latency between the first time a load is issued and its completion (Unspecified)
system.cpu.lsq0.loadToUse::mean              3.934450                       # Distribution of cycle latency between the first time a load is issued and its completion (Unspecified)
system.cpu.lsq0.loadToUse::stdev             6.150434                       # Distribution of cycle latency between the first time a load is issued and its completion (Unspecified)
system.cpu.lsq0.loadToUse::0-9                1929642     98.20%     98.20% # Distribution of cycle latency between the first time a load is issued and its completion (Unspecified)
system.cpu.lsq0.loadToUse::10-19                 5909      0.30%     98.50% # Distribution of cycle latency between the first time a load is issued and its completion (Unspecified)
system.cpu.lsq0.loadToUse::20-29                20430      1.04%     99.54% # Distribution of cycle latency between the first time a load is issued and its completion (Unspecified)
system.cpu.lsq0.loadToUse::30-39                 1915      0.10%     99.64% # Distribution of cycle latency between the first time a load is issued and its completion (Unspecified)
system.cpu.lsq0.loadToUse::40-49                 2548      0.13%     99.77% # Distribution of cycle latency between the first time a load is issued and its completion (Unspecified)
system.cpu.lsq0.loadToUse::50-59                 2159      0.11%     99.88% # Distribution of cycle latency between the first time a load is issued and its completion (Unspecified)
system.cpu.lsq0.loadToUse::60-69                  853      0.04%     99.92% # Distribution of cycle latency between the first time a load is issued and its completion (Unspecified)
system.cpu.lsq0.loadToUse::70-79                   47      0.00%     99.92% # Distribution of cycle latency between the first time a load is issued and its completion (Unspecified)
system.cpu.lsq0.loadToUse::80-89                   76      0.00%     99.93% # Distribution of cycle latency between the first time a load is issued and its completion (Unspecified)
system.cpu.lsq0.loadToUse::90-99                   70      0.00%     99.93% # Distribution of cycle latency between the first time a load is issued and its completion (Unspecified)
system.cpu.lsq0.loadToUse::100-109                 29      0.00%     99.93% # Distribution of cycle latency between the first time a load is issued and its completion (Unspecified)
system.cpu.lsq0.loadToUse::110-119                183      0.01%     99.94% # Distribution of cycle latency between the first time a load is issued and its completion (Unspecified)
system.cpu.lsq0.loadToUse::120-129                399      0.02%     99.96% # Distribution of cycle latency between the first time a load is issued and its completion (Unspecified)
system.cpu.lsq0.loadToUse::130-139                205      0.01%     99.97% # Distribution of cycle latency between the first time a load is issued and its completion (Unspecified)
system.cpu.lsq0.loadToUse::140-149                133      0.01%     99.98% # Distribution of cycle latency between the first time a load is issued and its completion (Unspecified)
system.cpu.lsq0.loadToUse::150-159                112      0.01%     99.98% # Distribution of cycle latency between the first time a load is issued and its completion (Unspecified)
system.cpu.lsq0.loadToUse::160-169                 47      0.00%     99.99% # Distribution of cycle latency between the first time a load is issued and its completion (Unspecified)
system.cpu.lsq0.loadToUse::170-179                 60      0.00%     99.99% # Distribution of cycle latency between the first time a load is issued and its completion (Unspecified)
system.cpu.lsq0.loadToUse::180-189                 16      0.00%     99.99% # Distribution of cycle latency between the first time a load is issued and its completion (Unspecified)
system.cpu.lsq0.loadToUse::190-199                 13      0.00%     99.99% # Distribution of cycle latency between the first time a load is issued and its completion (Unspecified)
system.cpu.lsq0.loadToUse::200-209                 39      0.00%     99.99% # Distribution of cycle latency between the first time a load is issued and its completion (Unspecified)
system.cpu.lsq0.loadToUse::210-219                 17      0.00%     99.99% # Distribution of cycle latency between the first time a load is issued and its completion (Unspecified)
system.cpu.lsq0.loadToUse::220-229                  2      0.00%     99.99% # Distribution of cycle latency between the first time a load is issued and its completion (Unspecified)
[...]
system.mem_ctrls.dram.perBankWrBursts::7        18255                       # Per bank write bursts (Count)
system.mem_ctrls.dram.perBankWrBursts::8        18308                       # Per bank write bursts (Count)
system.mem_ctrls.dram.perBankWrBursts::9        18247                       # Per bank write bursts (Count)
system.mem_ctrls.dram.perBankWrBursts::10        18360                       # Per bank write bursts (Count)
system.mem_ctrls.dram.perBankWrBursts::11        18371                       # Per bank write bursts (Count)
system.mem_ctrls.dram.perBankWrBursts::12        18376                       # Per bank write bursts (Count)
system.mem_ctrls.dram.perBankWrBursts::13        18335                       # Per bank write bursts (Count)
system.mem_ctrls.dram.perBankWrBursts::14        18304                       # Per bank write bursts (Count)
system.mem_ctrls.dram.perBankWrBursts::15        18304                       # Per bank write bursts (Count)
system.mem_ctrls.dram.totQLat              9109287000                       # Total ticks spent queuing (Tick)
system.mem_ctrls.dram.totBusLat            1629805000                       # Total ticks spent in databus transfers (Tick)
system.mem_ctrls.dram.totMemAccLat        15221055750                       # Total ticks spent from burst creation until serviced by the DRAM (Tick)
system.mem_ctrls.dram.avgQLat                27945.94                       # Average queueing delay per DRAM burst ((Tick/Count))
system.mem_ctrls.dram.avgBusLat               5000.00                       # Average bus latency per DRAM burst ((Tick/Count))
system.mem_ctrls.dram.avgMemAccLat           46695.94                       # Average memory access latency per DRAM burst ((Tick/Count))
system.mem_ctrls.dram.readRowHits              297581                       # Number of row buffer hits during reads (Count)
system.mem_ctrls.dram.writeRowHits             271810                       # Number of row buffer hits during writes (Count)
system.mem_ctrls.dram.readRowHitRate            91.29                       # Row buffer hit rate for reads (Ratio)
system.mem_ctrls.dram.writeRowHitRate           92.90                       # Row buffer hit rate for writes (Ratio)
system.mem_ctrls.dram.bytesPerActivate::samples        49148                       # Bytes accessed per row activation (Byte)
system.mem_ctrls.dram.bytesPerActivate::mean   805.428827                       # Bytes accessed per row activation (Byte)
system.mem_ctrls.dram.bytesPerActivate::gmean   688.460370                       # Bytes accessed per row activation (Byte)
system.mem_ctrls.dram.bytesPerActivate::stdev   316.483495                       # Bytes accessed per row activation (Byte)
system.mem_ctrls.dram.bytesPerActivate::0-127          527      1.07%      1.07% # Bytes accessed per row activation (Byte)
system.mem_ctrls.dram.bytesPerActivate::128-255         4979     10.13%     11.20% # Bytes accessed per row activation (Byte)
system.mem_ctrls.dram.bytesPerActivate::256-383          587      1.19%     12.40% # Bytes accessed per row activation (Byte)
system.mem_ctrls.dram.bytesPerActivate::384-511         4358      8.87%     21.26% # Bytes accessed per row activation (Byte)
system.mem_ctrls.dram.bytesPerActivate::512-639         2576      5.24%     26.51% # Bytes accessed per row activation (Byte)
system.mem_ctrls.dram.bytesPerActivate::640-767         2124      4.32%     30.83% # Bytes accessed per row activation (Byte)
system.mem_ctrls.dram.bytesPerActivate::768-895          573      1.17%     31.99% # Bytes accessed per row activation (Byte)
system.mem_ctrls.dram.bytesPerActivate::896-1023         9330     18.98%     50.98% # Bytes accessed per row activation (Byte)
system.mem_ctrls.dram.bytesPerActivate::1024-1151        24094     49.02%    100.00% # Bytes accessed per row activation (Byte)
system.mem_ctrls.dram.bytesPerActivate::total        49148                       # Bytes accessed per row activation (Byte)
system.mem_ctrls.dram.bytesRead              20861504                       # Total number of bytes read from DRAM (Byte)
system.mem_ctrls.dram.bytesWritten           18725120                       # Total number of bytes written to DRAM (Byte)
system.mem_ctrls.dram.avgRdBW             1625.511427                       # Average DRAM read bandwidth in MiBytes/s ((Byte/Second))
system.mem_ctrls.dram.avgWrBW             1459.046123                       # Average DRAM write bandwidth in MiBytes/s ((Byte/Second))
system.mem_ctrls.dram.peakBW                 12800.00                       # Theoretical peak bandwidth in MiByte/s ((Byte/Second))
system.mem_ctrls.dram.busUtil                   24.10                       # Data bus utilization in percentage (Ratio)
system.mem_ctrls.dram.busUtilRead               12.70                       # Data bus utilization in percentage for reads (Ratio)
system.mem_ctrls.dram.busUtilWrite              11.40                       # Data bus utilization in percentage for writes (Ratio)
system.mem_ctrls.dram.pageHitRate               92.05                       # Row buffer hit rate, read and write combined (Ratio)
system.mem_ctrls.dram.power_state.pwrStateResidencyTicks::UNDEFINED  12833809500                       # Cumulative time (in ticks) in various power states (Tick)
system.mem_ctrls.dram.rank0.actEnergy       174123180                       # Energy for activate commands per rank (pJ) (Joule)
system.mem_ctrls.dram.rank0.preEnergy        92541075                       # Energy for precharge commands per rank (pJ) (Joule)
system.mem_ctrls.dram.rank0.readEnergy     1161549480                       # Energy for read commands per rank (pJ) (Joule)
system.mem_ctrls.dram.rank0.writeEnergy     761989500                       # Energy for write commands per rank (pJ) (Joule)
system.mem_ctrls.dram.rank0.refreshEnergy 1012926720.000000                       # Energy for refresh commands per rank (pJ) (Joule)
system.mem_ctrls.dram.rank0.actBackEnergy   3403008300                       # Energy for active background per rank (pJ) (Joule)
system.mem_ctrls.dram.rank0.preBackEnergy   2062491840                       # Energy for precharge background per rank (pJ) (Joule)
system.mem_ctrls.dram.rank0.actPowerDownEnergy            0                       # Energy for active power-down per rank (pJ) (Joule)
system.mem_ctrls.dram.rank0.prePowerDownEnergy            0                       # Energy for precharge power-down per rank (pJ) (Joule)
system.mem_ctrls.dram.rank0.selfRefreshEnergy            0                       # Energy for self refresh per rank (pJ) (Joule)
system.mem_ctrls.dram.rank0.totalEnergy    8668630095                       # Total energy per rank (pJ) (Joule)
system.mem_ctrls.dram.rank0.averagePower   675.452608                       # Core power per rank (mW) (Watt)
system.mem_ctrls.dram.rank0.totalIdleTime            0                       # Total Idle time Per DRAM Rank (Tick)
system.mem_ctrls.dram.rank0.pwrStateTime::IDLE   5219716750                       # Time in different power states (Tick)
system.mem_ctrls.dram.rank0.pwrStateTime::REF    428480000                       # Time in different power states (Tick)
system.mem_ctrls.dram.rank0.pwrStateTime::SREF            0                       # Time in different power states (Tick)
system.mem_ctrls.dram.rank0.pwrStateTime::PRE_PDN            0                       # Time in different power states (Tick)
system.mem_ctrls.dram.rank0.pwrStateTime::ACT   7185612750                       # Time in different power states (Tick)
system.mem_ctrls.dram.rank0.pwrStateTime::ACT_PDN            0                       # Time in different power states (Tick)
system.mem_ctrls.dram.rank1.actEnergy       176807820                       # Energy for activate commands per rank (pJ) (Joule)
system.mem_ctrls.dram.rank1.preEnergy        93975585                       # Energy for precharge commands per rank (pJ) (Joule)
system.mem_ctrls.dram.rank1.readEnergy     1165812060                       # Energy for read commands per rank (pJ) (Joule)
system.mem_ctrls.dram.rank1.writeEnergy     765278100                       # Energy for write commands per rank (pJ) (Joule)
system.mem_ctrls.dram.rank1.refreshEnergy 1012926720.000000                       # Energy for refresh commands per rank (pJ) (Joule)
system.mem_ctrls.dram.rank1.actBackEnergy   3401586720                       # Energy for active background per rank (pJ) (Joule)
system.mem_ctrls.dram.rank1.preBackEnergy   2063688960                       # Energy for precharge background per rank (pJ) (Joule)
system.mem_ctrls.dram.rank1.actPowerDownEnergy            0                       # Energy for active power-down per rank (pJ) (Joule)
system.mem_ctrls.dram.rank1.prePowerDownEnergy            0                       # Energy for precharge power-down per rank (pJ) (Joule)
system.mem_ctrls.dram.rank1.selfRefreshEnergy            0                       # Energy for self refresh per rank (pJ) (Joule)
system.mem_ctrls.dram.rank1.totalEnergy    8680075965                       # Total energy per rank (pJ) (Joule)
system.mem_ctrls.dram.rank1.averagePower   676.344461                       # Core power per rank (mW) (Watt)
system.mem_ctrls.dram.rank1.totalIdleTime            0                       # Total Idle time Per DRAM Rank (Tick)
system.mem_ctrls.dram.rank1.pwrStateTime::IDLE   5221745500                       # Time in different power states (Tick)
system.mem_ctrls.dram.rank1.pwrStateTime::REF    428480000                       # Time in different power states (Tick)
system.mem_ctrls.dram.rank1.pwrStateTime::SREF            0                       # Time in different power states (Tick)
system.mem_ctrls.dram.rank1.pwrStateTime::PRE_PDN            0                       # Time in different power states (Tick)
system.mem_ctrls.dram.rank1.pwrStateTime::ACT   7183584000                       # Time in different power states (Tick)
system.mem_ctrls.dram.rank1.pwrStateTime::ACT_PDN            0                       # Time in different power states (Tick)
system.mem_ctrls.power_state.pwrStateResidencyTicks::UNDEFINED  12833809500                       # Cumulative time (in ticks) in various power states (Tick)
system.membus.transDist::ReadResp                 597                       # Transaction distribution (Count)
system.membus.transDist::WritebackDirty        292608                       # Transaction distribution (Count)
system.membus.transDist::CleanEvict               551                       # Transaction distribution (Count)
system.membus.transDist::ReadExReq             325364                       # Transaction distribution (Count)
system.membus.transDist::ReadExResp            325364                       # Transaction distribution (Count)
system.membus.transDist::ReadSharedReq            597                       # Transaction distribution (Count)
system.membus.pktCount_system.l2.mem_side_port::system.mem_ctrls.port       945081                       # Packet count per connected requestor and responder (Count)
system.membus.pktCount::total                  945081                       # Packet count per connected requestor and responder (Count)
system.membus.pktSize_system.l2.mem_side_port::system.mem_ctrls.port     39588416                       # Cumulative packet size per connected requestor and responder (Byte)
system.membus.pktSize::total                 39588416                       # Cumulative packet size per connected requestor and responder (Byte)
system.membus.snoops                                0                       # Total snoops (Count)
system.membus.snoopTraffic                          0                       # Total snoop traffic (Byte)
system.membus.snoopFanout::samples             325961                       # Request fanout histogram (Count)
system.membus.snoopFanout::mean                     0                       # Request fanout histogram (Count)
system.membus.snoopFanout::stdev                    0                       # Request fanout histogram (Count)
system.membus.snoopFanout::underflows               0      0.00%      0.00% # Request fanout histogram (Count)
system.membus.snoopFanout::0                   325961    100.00%    100.00% # Request fanout histogram (Count)
system.membus.snoopFanout::1                        0      0.00%    100.00% # Request fanout histogram (Count)
system.membus.snoopFanout::overflows                0      0.00%    100.00% # Request fanout histogram (Count)
system.membus.snoopFanout::min_value                0                       # Request fanout histogram (Count)
system.membus.snoopFanout::max_value                0                       # Request fanout histogram (Count)
system.membus.snoopFanout::total               325961                       # Request fanout histogram (Count)
system.membus.power_state.pwrStateResidencyTicks::UNDEFINED  12833809500                       # Cumulative time (in ticks) in various power states (Tick)
system.membus.reqLayer0.occupancy          1913853000                       # Layer occupancy (ticks) (Tick)
system.membus.reqLayer0.utilization               0.1                       # Layer utilization (Ratio)
system.membus.respLayer1.occupancy         1672439000                       # Layer occupancy (ticks) (Tick)
system.membus.respLayer1.utilization              0.1                       # Layer utilization (Ratio)
system.membus.snoop_filter.totRequests         619120                       # Total number of requests made to the snoop filter. (Count)
system.membus.snoop_filter.hitSingleRequests       293159                       # Number of requests hitting in the snoop filter with a single holder of the requested data. (Count)
system.membus.snoop_filter.hitMultiRequests            0                       # Number of requests hitting in the snoop filter with multiple (>1) holders of the requested data. (Count)
system.membus.snoop_filter.totSnoops                0                       # Total number of snoops made to the snoop filter. (Count)
system.membus.snoop_filter.hitSingleSnoops            0                       # Number of snoops hitting in the snoop filter with a single holder of the requested data. (Count)
system.membus.snoop_filter.hitMultiSnoops            0                       # Number of snoops hitting in the snoop filter with multiple (>1) holders of the requested data. (Count)
system.tol2bus.transDist::ReadResp              13599                       # Transaction distribution (Count)
system.tol2bus.transDist::WritebackDirty       634047                       # Transaction distribution (Count)
system.tol2bus.transDist::WritebackClean          843                       # Transaction distribution (Count)
system.tol2bus.transDist::CleanEvict            12140                       # Transaction distribution (Count)
system.tol2bus.transDist::ReadExReq            340304                       # Transaction distribution (Count)
system.tol2bus.transDist::ReadExResp           340302                       # Transaction distribution (Count)
system.tol2bus.transDist::ReadCleanReq            875                       # Transaction distribution (Count)
system.tol2bus.transDist::ReadSharedReq         12724                       # Transaction distribution (Count)
system.tol2bus.pktCount_system.cpu.icache.mem_side_port::system.l2.cpu_side_port         2593                       # Packet count per connected requestor and responder (Count)
system.tol2bus.pktCount_system.cpu.dcache.mem_side_port::system.l2.cpu_side_port      1059048                       # Packet count per connected requestor and responder (Count)
system.tol2bus.pktCount::total                1061641                       # Packet count per connected requestor and responder (Count)
system.tol2bus.pktSize_system.cpu.icache.mem_side_port::system.l2.cpu_side_port       109952                       # Cumulative packet size per connected requestor and responder (Byte)
system.tol2bus.pktSize_system.cpu.dcache.mem_side_port::system.l2.cpu_side_port     44445632                       # Cumulative packet size per connected requestor and responder (Byte)
system.tol2bus.pktSize::total                44555584                       # Cumulative packet size per connected requestor and responder (Byte)
system.tol2bus.snoops                          293193                       # Total snoops (Count)
system.tol2bus.snoopTraffic                  18727040                       # Total snoop traffic (Byte)
system.tol2bus.snoopFanout::samples            647096                       # Request fanout histogram (Count)
system.tol2bus.snoopFanout::mean             0.001091                       # Request fanout histogram (Count)
system.tol2bus.snoopFanout::stdev            0.033013                       # Request fanout histogram (Count)
system.tol2bus.snoopFanout::underflows              0      0.00%      0.00% # Request fanout histogram (Count)
system.tol2bus.snoopFanout::0                  646390     99.89%     99.89% # Request fanout histogram (Count)
system.tol2bus.snoopFanout::1                     706      0.11%    100.00% # Request fanout histogram (Count)
system.tol2bus.snoopFanout::2                       0      0.00%    100.00% # Request fanout histogram (Count)
system.tol2bus.snoopFanout::overflows               0      0.00%    100.00% # Request fanout histogram (Count)
system.tol2bus.snoopFanout::min_value               0                       # Request fanout histogram (Count)
system.tol2bus.snoopFanout::max_value               1                       # Request fanout histogram (Count)
system.tol2bus.snoopFanout::total              647096                       # Request fanout histogram (Count)
system.tol2bus.power_state.pwrStateResidencyTicks::UNDEFINED  12833809500                       # Cumulative time (in ticks) in various power states (Tick)
system.tol2bus.reqLayer0.occupancy          696150000                       # Layer occupancy (ticks) (Tick)
system.tol2bus.reqLayer0.utilization              0.1                       # Layer utilization (Ratio)
system.tol2bus.respLayer0.occupancy           1315494                       # Layer occupancy (ticks) (Tick)
system.tol2bus.respLayer0.utilization             0.0                       # Layer utilization (Ratio)
system.tol2bus.respLayer1.occupancy         529543491                       # Layer occupancy (ticks) (Tick)
system.tol2bus.respLayer1.utilization             0.0                       # Layer utilization (Ratio)
system.tol2bus.snoop_filter.totRequests        707740                       # Total number of requests made to the snoop filter. (Count)
system.tol2bus.snoop_filter.hitSingleRequests       353837                       # Number of requests hitting in the snoop filter with a single holder of the requested data. (Count)
system.tol2bus.snoop_filter.hitMultiRequests          674                       # Number of requests hitting in the snoop filter with multiple (>1) holders of the requested data. (Count)
system.tol2bus.snoop_filter.totSnoops              32                       # Total number of snoops made to the snoop filter. (Count)
system.tol2bus.snoop_filter.hitSingleSnoops           32                       # Number of snoops hitting in the snoop filter with a single holder of the requested data. (Count)
system.tol2bus.snoop_filter.hitMultiSnoops            0                       # Number of snoops hitting in the snoop filter with multiple (>1) holders of the requested data. (Count)
system.voltage_domain.voltage                       1                       # Voltage in Volts (Volt)
system.workload.inst.arm                            0                       # number of arm instructions executed (Count)
system.workload.inst.quiesce                        0                       # number of quiesce instructions executed (Count)

---------- End Simulation Statistics   ----------
