
---------- Begin Simulation Statistics ----------
simSeconds                                   0.013240                       # Number of seconds simulated (Second)
simTicks                                  13240223500                       # Number of ticks simulated (Tick)
finalTick                                 13240223500                       # Number of ticks from beginning of simulation (restored from checkpoints and never reset) (Tick)
simFreq                                  1000000000000                       # The number of ticks per simulated second ((Tick/Second))
hostSeconds                                     83.65                       # Real time elapsed on the host (Second)
hostTickRate                                158277559                       # The number of ticks simulated per host second (ticks/s) ((Tick/Second))
hostMemory                                     672652                       # Number of bytes of host memory used (Byte)
simInsts                                     10000000                       # Number of instructions simulated (Count)
simOps                                       15171534                       # Number of ops (including micro ops) simulated (Count)
hostInstRate                                   119541                       # Simulator instruction rate (inst/s) ((Count/Second))
hostOpRate                                     181361                       # Simulator op (including micro ops) rate (op/s) ((Count/Second))
system.clk_domain.clock                          1000                       # Clock period in ticks (Tick)
system.cpu.numCycles                         26480448                       # Number of cpu cycles simulated (Cycle)
system.cpu.numWorkItemsStarted                      0                       # Number of work items this cpu started (Count)
system.cpu.numWorkItemsCompleted                    0                       # Number of work items this cpu completed (Count)
system.cpu.instsAdded                        15558180                       # Number of instructions added to the IQ (excludes non-spec) (Count)
system.cpu.nonSpecInstsAdded                       56                       # Number of non-speculative instructions added to the IQ (Count)
system.cpu.instsIssued                       15641734                       # Number of instructions issued (Count)
system.cpu.squashedInstsIssued                     69                       # Number of squashed instructions issued (Count)
system.cpu.squashedInstsExamined               386693                       # Number of squashed instructions iterated over during squash; mainly for profiling (Count)
system.cpu.squashedOperandsExamined            579251                       # Number of squashed operands that are examined and possibly removed from graph (Count)
system.cpu.squashedNonSpecRemoved                   4                       # Number of squashed non-spec instructions that were removed (Count)
system.cpu.numIssuedDist::samples            26445649                       # Number of insts issued each cycle (Count)
system.cpu.numIssuedDist::mean               0.591467                       # Number of insts issued each cycle (Count)
system.cpu.numIssuedDist::stdev              1.377516                       # Number of insts issued each cycle (Count)
system.cpu.numIssuedDist::underflows                0      0.00%      0.00% # Number of insts issued each cycle (Count)
system.cpu.numIssuedDist::0                  21485005     81.24%     81.24% # Number of insts issued each cycle (Count)
system.cpu.numIssuedDist::1                   1159213      4.38%     85.63% # Number of insts issued each cycle (Count)
system.cpu.numIssuedDist::2                    332032      1.26%     86.88% # Number of insts issued each cycle (Count)
system.cpu.numIssuedDist::3                    875476      3.31%     90.19% # Number of insts issued each cycle (Count)
system.cpu.numIssuedDist::4                   1867240      7.06%     97.25% # Number of insts issued each cycle (Count)
system.cpu.numIssuedDist::5                    654878      2.48%     99.73% # Number of insts issued each cycle (Count)
system.cpu.numIssuedDist::6                     54996      0.21%     99.94% # Number of insts issued each cycle (Count)
system.cpu.numIssuedDist::7                     15769      0.06%    100.00% # Number of insts issued each cycle (Count)
system.cpu.numIssuedDist::8                      1040      0.00%    100.00% # Number of insts issued each cycle (Count)
system.cpu.numIssuedDist::overflows                 0      0.00%    100.00% # Number of insts issued each cycle (Count)
system.cpu.numIssuedDist::min_value                 0                       # Number of insts issued each cycle (Count)
system.cpu.numIssuedDist::max_value                 8                       # Number of insts issued each cycle (Count)
system.cpu.numIssuedDist::total              26445649                       # Number of insts issued each cycle (Count)
system.cpu.statFuBusy::No_OpClass                   0      0.00%      0.00% # attempts to use FU when none available (Count)
system.cpu.statFuBusy::IntAlu                     163      0.15%      0.15% # attempts to use FU when none available (Count)
system.cpu.statFuBusy::IntMult                      0      0.00%      0.15% # attempts to use FU when none available (Count)
system.cpu.statFuBusy::IntDiv                       0      0.00%      0.15% # attempts to use FU when none available (Count)
system.cpu.statFuBusy::FloatAdd                     0      0.00%      0.15% # attempts to use FU when none available (Count)
system.cpu.statFuBusy::FloatCmp                     0      0.00%      0.15% # attempts to use FU when none available (Count)
system.cpu.statFuBusy::FloatCvt                     0      0.00%      0.15% # attempts to use FU when none available (Count)
system.cpu.statFuBusy::FloatMult                    0      0.00%      0.15% # attempts to use FU when none available (Count)
system.cpu.statFuBusy::FloatMultAcc                 0      0.00%      0.15% # attempts to use FU when none available (Count)
system.cpu.statFuBusy::FloatDiv                     0      0.00%      0.15% # attempts to use FU when none available (Count)
system.cpu.statFuBusy::FloatMisc                    0      0.00%      0.15% # attempts to use FU when none available (Count)
system.cpu.statFuBusy::FloatSqrt                    0      0.00%      0.15% # attempts to use FU when none available (Count)
system.cpu.statFuBusy::SimdAdd                      0      0.00%      0.15% # attempts to use FU when none available (Count)
system.cpu.statFuBusy::SimdAddAcc                   0      0.00%      0.15% # attempts to use FU when none available (Count)
system.cpu.statFuBusy::SimdAlu                      0      0.00%      0.15% # attempts to use FU when none available (Count)
system.cpu.statFuBusy::SimdCmp                      0      0.00%      0.15% # attempts to use FU when none available (Count)
system.cpu.statFuBusy::SimdCvt                      0      0.00%      0.15% # attempts to use FU when none available (Count)
system.cpu.statFuBusy::SimdMisc                     0      0.00%      0.15% # attempts to use FU when none available (Count)
system.cpu.statFuBusy::SimdMult                     0      0.00%      0.15% # attempts to use FU when none available (Count)
system.cpu.statFuBusy::SimdMultAcc                  0      0.00%      0.15% # attempts to use FU when none available (Count)
system.cpu.statFuBusy::SimdShift                    0      0.00%      0.15% # attempts to use FU when none available (Count)
system.cpu.statFuBusy::SimdShiftAcc                 0      0.00%      0.15% # attempts to use FU when none available (Count)
system.cpu.statFuBusy::SimdDiv                      0      0.00%      0.15% # attempts to use FU when none available (Count)
system.cpu.statFuBusy::SimdSqrt                     0      0.00%      0.15% # attempts to use FU when none available (Count)
system.cpu.statFuBusy::SimdFloatAdd                 0      0.00%      0.15% # attempts to use FU when none available (Count)
system.cpu.statFuBusy::SimdFloatAlu                 0      0.00%      0.15% # attempts to use FU when none available (Count)
system.cpu.statFuBusy::SimdFloatCmp                 0      0.00%      0.15% # attempts to use FU when none available (Count)
system.cpu.statFuBusy::SimdFloatCvt                 0      0.00%      0.15% # attempts to use FU when none available (Count)
system.cpu.statFuBusy::SimdFloatDiv                 0      0.00%      0.15% # attempts to use FU when none available (Count)
system.cpu.statFuBusy::SimdFloatMisc                0      0.00%      0.15% # attempts to use FU when none available (Count)
system.cpu.statFuBusy::SimdFloatMult                0      0.00%      0.15% # attempts to use FU when none available (Count)
system.cpu.statFuBusy::SimdFloatMultAcc             0      0.00%      0.15% # attempts to use FU when none available (Count)
system.cpu.statFuBusy::SimdFloatSqrt                0      0.00%      0.15% # attempts to use FU when none available (Count)
system.cpu.statFuBusy::SimdReduceAdd                0      0.00%      0.15% # attempts to use FU when none available (Count)
system.cpu.statFuBusy::SimdReduceAlu                0      0.00%      0.15% # attempts to use FU when none available (Count)
system.cpu.statFuBusy::SimdReduceCmp                0      0.00%      0.15% # attempts to use FU when none available (Count)
system.cpu.statFuBusy::SimdFloatReduceAdd            0      0.00%      0.15% # attempts to use FU when none available (Count)
system.cpu.statFuBusy::SimdFloatReduceCmp            0      0.00%      0.15% # attempts to use FU when none available (Count)
system.cpu.statFuBusy::SimdAes                      0      0.00%      0.15% # attempts to use FU when none available (Count)
system.cpu.statFuBusy::SimdAesMix                   0      0.00%      0.15% # attempts to use FU when none available (Count)
system.cpu.statFuBusy::SimdSha1Hash                 0      0.00%      0.15% # attempts to use FU when none available (Count)
system.cpu.statFuBusy::SimdSha1Hash2                0      0.00%      0.15% # attempts to use FU when none available (Count)
system.cpu.statFuBusy::SimdSha256Hash               0      0.00%      0.15% # attempts to use FU when none available (Count)
system.cpu.statFuBusy::SimdSha256Hash2              0      0.00%      0.15% # attempts to use FU when none available (Count)
system.cpu.statFuBusy::SimdShaSigma2                0      0.00%      0.15% # attempts to use FU when none available (Count)
system.cpu.statFuBusy::SimdShaSigma3                0      0.00%      0.15% # attempts to use FU when none available (Count)
system.cpu.statFuBusy::SimdPredAlu                  0      0.00%      0.15% # attempts to use FU when none available (Count)
system.cpu.statFuBusy::MemRead                 106351     99.34%     99.49% # attempts to use FU when none available (Count)
system.cpu.statFuBusy::MemWrite                   545      0.51%    100.00% # attempts to use FU when none available (Count)
system.cpu.statFuBusy::FloatMemRead                 0      0.00%    100.00% # attempts to use FU when none available (Count)
system.cpu.statFuBusy::FloatMemWrite                0      0.00%    100.00% # attempts to use FU when none available (Count)
system.cpu.statFuBusy::IprAccess                    0      0.00%    100.00% # attempts to use FU when none available (Count)
system.cpu.statFuBusy::InstPrefetch                 0      0.00%    100.00% # attempts to use FU when none available (Count)
system.cpu.statIssuedInstType_0::No_OpClass            3      0.00%      0.00% # Number of instructions issued per FU type, per thread (Count)
system.cpu.statIssuedInstType_0::IntAlu       8066405     51.57%     51.57% # Number of instructions issued per FU type, per thread (Count)
system.cpu.statIssuedInstType_0::IntMult            6      0.00%     51.57% # Number of instructions issued per FU type, per thread (Count)
system.cpu.statIssuedInstType_0::IntDiv             0      0.00%     51.57% # Number of instructions issued per FU type, per thread (Count)
system.cpu.statIssuedInstType_0::FloatAdd            0      0.00%     51.57% # Number of instructions issued per FU type, per thread (Count)
system.cpu.statIssuedInstType_0::FloatCmp            0      0.00%     51.57% # Number of instructions issued per FU type, per thread (Count)
system.cpu.statIssuedInstType_0::FloatCvt            0      0.00%     51.57% # Number of instructions issued per FU type, per thread (Count)
system.cpu.statIssuedInstType_0::FloatMult            0      0.00%     51.57% # Number of instructions issued per FU type, per thread (Count)
system.cpu.statIssuedInstType_0::FloatMultAcc            0      0.00%     51.57% # Number of instructions issued per FU type, per thread (Count)
system.cpu.statIssuedInstType_0::FloatDiv            0      0.00%     51.57% # Number of instructions issued per FU type, per thread (Count)
system.cpu.statIssuedInstType_0::FloatMisc            0      0.00%     51.57% # Number of instructions issued per FU type, per thread (Count)
system.cpu.statIssuedInstType_0::FloatSqrt            0      0.00%     51.57% # Number of instructions issued per FU type, per thread (Count)
system.cpu.statIssuedInstType_0::SimdAdd            0      0.00%     51.57% # Number of instructions issued per FU type, per thread (Count)
system.cpu.statIssuedInstType_0::SimdAddAcc            0      0.00%     51.57% # Number of instructions issued per FU type, per thread (Count)
system.cpu.statIssuedInstType_0::SimdAlu            0      0.00%     51.57% # Number of instructions issued per FU type, per thread (Count)
system.cpu.statIssuedInstType_0::SimdCmp            0      0.00%     51.57% # Number of instructions issued per FU type, per thread (Count)
system.cpu.statIssuedInstType_0::SimdCvt            0      0.00%     51.57% # Number of instructions issued per FU type, per thread (Count)
system.cpu.statIssuedInstType_0::SimdMisc            0      0.00%     51.57% # Number of instructions issued per FU type, per thread (Count)
system.cpu.statIssuedInstType_0::SimdMult            0      0.00%     51.57% # Number of instructions issued per FU type, per thread (Count)
system.cpu.statIssuedInstType_0::SimdMultAcc            0      0.00%     51.57% # Number of instructions issued per FU type, per thread (Count)
system.cpu.statIssuedInstType_0::SimdShift            0      0.00%     51.57% # Number of instructions issued per FU type, per thread (Count)
system.cpu.statIssuedInstType_0::SimdShiftAcc            0      0.00%     51.57% # Number of instructions issued per FU type, per thread (Count)
system.cpu.statIssuedInstType_0::SimdDiv            0      0.00%     51.57% # Number of instructions issued per FU type, per thread (Count)
system.cpu.statIssuedInstType_0::SimdSqrt            0      0.00%     51.57% # Number of instructions issued per FU type, per thread (Count)
system.cpu.statIssuedInstType_0::SimdFloatAdd            0      0.00%     51.57% # Number of instructions issued per FU type, per thread (Count)
system.cpu.statIssuedInstType_0::SimdFloatAlu            0      0.00%     51.57% # Number of instructions issued per FU type, per thread (Count)
system.cpu.statIssuedInstType_0::SimdFloatCmp            0      0.00%     51.57% # Number of instructions issued per FU type, per thread (Count)
system.cpu.statIssuedInstType_0::SimdFloatCvt            0      0.00%     51.57% # Number of instructions issued per FU type, per thread (Count)
system.cpu.statIssuedInstType_0::SimdFloatDiv            0      0.00%     51.57% # Number of instructions issued per FU type, per thread (Count)
system.cpu.statIssuedInstType_0::SimdFloatMisc            0      0.00%     51.57% # Number of instructions issued per FU type, per thread (Count)
system.cpu.statIssuedInstType_0::SimdFloatMult            0      0.00%     51.57% # Number of instructions issued per FU type, per thread (Count)
system.cpu.statIssuedInstType_0::SimdFloatMultAcc            0      0.00%     51.57% # Number of instructions issued per FU type, per thread (Count)
system.cpu.statIssuedInstType_0::SimdFloatSqrt            0      0.00%     51.57% # Number of instructions issued per FU type, per thread (Count)
system.cpu.statIssuedInstType_0::SimdReduceAdd            0      0.00%     51.57% # Number of instructions issued per FU type, per thread (Count)
system.cpu.statIssuedInstType_0::SimdReduceAlu            0      0.00%     51.57% # Number of instructions issued per FU type, per thread (Count)
system.cpu.statIssuedInstType_0::SimdReduceCmp            0      0.00%     51.57% # Number of instructions issued per FU type, per thread (Count)
system.cpu.statIssuedInstType_0::SimdFloatReduceAdd            0      0.00%     51.57% # Number of instructions issued per FU type, per thread (Count)
system.cpu.statIssuedInstType_0::SimdFloatReduceCmp            0      0.00%     51.57% # Number of instructions issued per FU type, per thread (Count)
system.cpu.statIssuedInstType_0::SimdAes            0      0.00%     51.57% # Number of instructions issued per FU type, per thread (Count)
system.cpu.statIssuedInstType_0::SimdAesMix            0      0.00%     51.57% # Number of instructions issued per FU type, per thread (Count)
system.cpu.statIssuedInstType_0::SimdSha1Hash            0      0.00%     51.57% # Number of instructions issued per FU type, per thread (Count)
system.cpu.statIssuedInstType_0::SimdSha1Hash2            0      0.00%     51.57% # Number of instructions issued per FU type, per thread (Count)
system.cpu.statIssuedInstType_0::SimdSha256Hash            0      0.00%     51.57% # Number of instructions issued per FU type, per thread (Count)
system.cpu.statIssuedInstType_0::SimdSha256Hash2            0      0.00%     51.57% # Number of instructions issued per FU type, per thread (Count)
system.cpu.statIssuedInstType_0::SimdShaSigma2            0      0.00%     51.57% # Number of instructions issued per FU type, per thread (Count)
system.cpu.statIssuedInstType_0::SimdShaSigma3            0      0.00%     51.57% # Number of instructions issued per FU type, per thread (Count)
system.cpu.statIssuedInstType_0::SimdPredAlu            0      0.00%     51.57% # Number of instructions issued per FU type, per thread (Count)
system.cpu.statIssuedInstType_0::MemRead      2075872     13.27%     64.84% # Number of instructions issued per FU type, per thread (Count)
system.cpu.statIssuedInstType_0::MemWrite      5499448     35.16%    100.00% # Number of instructions issued per FU type, per thread (Count)
system.cpu.statIssuedInstType_0::FloatMemRead            0      0.00%    100.00% # Number of instructions issued per FU type, per thread (Count)
system.cpu.statIssuedInstType_0::FloatMemWrite            0      0.00%    100.00% # Number of instructions issued per FU type, per thread (Count)
system.cpu.statIssuedInstType_0::IprAccess            0      0.00%    100.00% # Number of instructions issued per FU type, per thread (Count)
system.cpu.statIssuedInstType_0::InstPrefetch            0      0.00%    100.00% # Number of instructions issued per FU type, per thread (Count)
system.cpu.statIssuedInstType_0::total       15641734                       # Number of instructions issued per FU type, per thread (Count)
system.cpu.issueRate                         0.590690                       # Inst issue rate ((Count/Cycle))
system.cpu.fuBusy                              107059                       # FU busy when requested (Count)
system.cpu.fuBusyRate                        0.006844                       # FU busy rate (busy events/executed inst) ((Count/Count))
system.cpu.intInstQueueReads                 57836242                       # Number of integer instruction queue reads (Count)
system.cpu.intInstQueueWrites                15945048                       # Number of integer instruction queue writes (Count)
system.cpu.intInstQueueWakeupAccesses        15456136                       # Number of integer instruction queue wakeup accesses (Count)
system.cpu.fpInstQueueReads                         0                       # Number of floating instruction queue reads (Count)
system.cpu.fpInstQueueWrites                        0                       # Number of floating instruction queue writes (Count)
system.cpu.fpInstQueueWakeupAccesses                0                       # Number of floating instruction queue wakeup accesses (Count)
system.cpu.vecInstQueueReads                        0                       # Number of vector instruction queue reads (Count)
system.cpu.vecInstQueueWrites                       0                       # Number of vector instruction queue writes (Count)
system.cpu.vecInstQueueWakeupAccesses               0                       # Number of vector instruction queue wakeup accesses (Count)
system.cpu.intAluAccesses                    15748790                       # Number of integer alu accesses (Count)
system.cpu.fpAluAccesses                            0                       # Number of floating point alu accesses (Count)
system.cpu.vecAluAccesses                           0                       # Number of vector alu accesses (Count)
system.cpu.idleCycles                               0                       # Number of cycles IEW is idle (Cycle)
system.cpu.squashCycles                          6453                       # Number of cycles IEW is squashing (Cycle)
system.cpu.blockCycles                          53629                       # Number of cycles IEW is blocking (Cycle)
system.cpu.unblockCycles                       303073                       # Number of cycles IEW is unblocking (Cycle)
system.cpu.dispatchedInsts                   15558236                       # Number of instructions dispatched to IQ (Count)
system.cpu.dispSquashedInsts                      227                       # Number of squashed instructions skipped by dispatch (Count)
system.cpu.dispLoadInsts                      1975182                       # Number of dispatched load instructions (Count)
system.cpu.dispStoreInsts                     5501978                       # Number of dispatched store instructions (Count)
system.cpu.dispNonSpecInsts                        36                       # Number of dispatched non-speculative instructions (Count)
system.cpu.iqFullEvents                           830                       # Number of times the IQ has become full, causing a stall (Count)
system.cpu.lsqFullEvents                       301407                       # Number of times the LSQ has become full, causing a stall (Count)
system.cpu.memOrderViolationEvents                122                       # Number of memory order violations (Count)
system.cpu.predictedTakenIncorrect                768                       # Number of branches that were predicted taken incorrectly (Count)
system.cpu.predictedNotTakenIncorrect             589                       # Number of branches that were predicted not taken incorrectly (Count)
system.cpu.branchMispredicts                     1357                       # Number of branch mispredicts detected at execute (Count)
system.cpu.numInsts                          15640297                       # Number of executed instructions (Count)
system.cpu.numLoadInsts                       2075276                       # Number of load instructions executed (Count)
system.cpu.numSquashedInsts                      1434                       # Number of squashed instructions skipped in execute (Count)
system.cpu.numSwp                                   0                       # Number of swp insts executed (Count)
system.cpu.numNop                                   0                       # Number of nop insts executed (Count)
system.cpu.numRefs                            7574608                       # Number of memory reference insts executed (Count)
system.cpu.numBranches                         710266                       # Number of branches executed (Count)
system.cpu.numStoreInsts                      5499332                       # Number of stores executed (Count)
system.cpu.numRate                           0.590636                       # Inst execution rate ((Count/Cycle))
system.cpu.instsToCommit                     15535420                       # Cumulative count of insts sent to commit (Count)
system.cpu.writebackCount                    15456136                       # Cumulative count of insts written-back (Count)
system.cpu.producerInst                       8791233                       # Number of instructions producing a value (Count)
system.cpu.consumerInst                      30963534                       # Number of instructions consuming a value (Count)
system.cpu.wbRate                            0.583681                       # Insts written-back per cycle ((Count/Cycle))
system.cpu.wbFanout                          0.283922                       # Average fanout of values written-back ((Count/Count))
system.cpu.timesIdled                             707                       # Number of times that the entire CPU went into an idle state and unscheduled itself (Count)
system.cpu.idleCycles                           34799                       # Total number of cycles that the CPU has spent unscheduled due to idling (Cycle)
system.cpu.committedInsts                    10000000                       # Number of Instructions Simulated (Count)
system.cpu.committedOps                      15171534                       # Number of Ops (including micro ops) Simulated (Count)
system.cpu.cpi                               2.648045                       # CPI: Cycles Per Instruction ((Cycle/Count))
system.cpu.totalCpi                          2.648045                       # CPI: Total CPI of All Threads ((Cycle/Count))
system.cpu.ipc                               0.377637                       # IPC: Instructions Per Cycle ((Count/Cycle))
system.cpu.totalIpc                          0.377637                       # IPC: Total IPC of All Threads ((Count/Cycle))
system.cpu.intRegfileReads                   21344179                       # Number of integer regfile reads (Count)
system.cpu.intRegfileWrites                   9072874                       # Number of integer regfile writes (Count)
system.cpu.vecRegfileReads                         16                       # number of vector regfile reads (Count)
system.cpu.ccRegfileReads                    52831693                       # number of cc regfile reads (Count)
system.cpu.ccRegfileWrites                    8758576                       # number of cc regfile writes (Count)
system.cpu.miscRegfileReads                  30774440                       # number of misc regfile reads (Count)
system.cpu.miscRegfileWrites                       81                       # number of misc regfile writes (Count)
system.cpu.MemDepUnit__0.insertedLoads        1975182                       # Number of loads inserted to the mem dependence unit. (Count)
system.cpu.MemDepUnit__0.insertedStores       5501978                       # Number of stores inserted to the mem dependence unit. (Count)
system.cpu.MemDepUnit__0.conflictingLoads       162332                       # Number of conflicting loads. (Count)
system.cpu.MemDepUnit__0.conflictingStores        22289                       # Number of conflicting stores. (Count)
system.cpu.MemDepUnit__1.insertedLoads              0                       # Number of loads inserted to the mem dependence unit. (Count)
system.cpu.MemDepUnit__1.insertedStores             0                       # Number of stores inserted to the mem dependence unit. (Count)
system.cpu.MemDepUnit__1.conflictingLoads            0                       # Number of conflicting loads. (Count)
system.cpu.MemDepUnit__1.conflictingStores            0                       # Number of conflicting stores. (Count)
system.cpu.MemDepUnit__2.insertedLoads              0                       # Number of loads inserted to the mem dependence unit. (Count)
system.cpu.MemDepUnit__2.insertedStores             0                       # Number of stores inserted to the mem dependence unit. (Count)
system.cpu.MemDepUnit__2.conflictingLoads            0                       # Number of conflicting loads. (Count)
system.cpu.MemDepUnit__2.conflictingStores            0                       # Number of conflicting stores. (Count)
system.cpu.MemDepUnit__3.insertedLoads              0                       # Number of loads inserted to the mem dependence unit. (Count)
system.cpu.MemDepUnit__3.insertedStores             0                       # Number of stores inserted to the mem dependence unit. (Count)
system.cpu.MemDepUnit__3.conflictingLoads            0                       # Number of conflicting loads. (Count)
system.cpu.MemDepUnit__3.conflictingStores            0                       # Number of conflicting stores. (Count)
system.cpu.branchPred.lookups                  734237                       # Number of BP lookups (Count)
system.cpu.branchPred.condPredicted            726755                       # Number of conditional branches predicted (Count)
system.cpu.branchPred.condIncorrect              1522                       # Number of conditional branches incorrect (Count)
system.cpu.branchPred.BTBLookups               728086                       # Number of BTB lookups (Count)
system.cpu.branchPred.BTBHits                  727598                       # Number of BTB hits (Count)
system.cpu.branchPred.BTBMissPct             0.000670                       # BTB Miss Percentage (Ratio)
system.cpu.branchPred.BTBHitRatio            0.999330                       # BTB Hit Ratio (Ratio)
system.cpu.branchPred.RASUsed                    2425                       # Number of times the RAS was used to get a target. (Count)
system.cpu.branchPred.RASIncorrect                 43                       # Number of incorrect RAS predictions. (Count)
system.cpu.branchPred.indirectLookups             197                       # Number of indirect predictor lookups. (Count)
system.cpu.branchPred.indirectHits                 22                       # Number of indirect target hits. (Count)
system.cpu.branchPred.indirectMisses              175                       # Number of indirect misses. (Count)
system.cpu.branchPred.indirectMispredicted           64                       # Number of mispredicted indirect branches. (Count)
system.cpu.commit.commitSquashedInsts          235614                       # The number of squashed insts skipped by commit (Count)
system.cpu.commit.commitNonSpecStalls              52                       # The number of times commit has been forced to stall to communicate backwards (Count)
system.cpu.commit.branchMispredicts              1284                       # The number of times a branch was mispredicted (Count)
system.cpu.commit.numCommittedDist::samples     26414772                       # Number of insts commited each cycle (Count)
system.cpu.commit.numCommittedDist::mean     0.574358                       # Number of insts commited each cycle (Count)
system.cpu.commit.numCommittedDist::stdev     1.515523                       # Number of insts commited each cycle (Count)
system.cpu.commit.numCommittedDist::underflows            0      0.00%      0.00% # Number of insts commited each cycle (Count)
system.cpu.commit.numCommittedDist::0        22064369     83.53%     83.53% # Number of insts commited each cycle (Count)
system.cpu.commit.numCommittedDist::1         1122263      4.25%     87.78% # Number of insts commited each cycle (Count)
system.cpu.commit.numCommittedDist::2          117104      0.44%     88.22% # Number of insts commited each cycle (Count)
system.cpu.commit.numCommittedDist::3          643236      2.44%     90.66% # Number of insts commited each cycle (Count)
system.cpu.commit.numCommittedDist::4         1574324      5.96%     96.62% # Number of insts commited each cycle (Count)
system.cpu.commit.numCommittedDist::5          498731      1.89%     98.51% # Number of insts commited each cycle (Count)
system.cpu.commit.numCommittedDist::6           17994      0.07%     98.57% # Number of insts commited each cycle (Count)
system.cpu.commit.numCommittedDist::7           27568      0.10%     98.68% # Number of insts commited each cycle (Count)
system.cpu.commit.numCommittedDist::8          349183      1.32%    100.00% # Number of insts commited each cycle (Count)
system.cpu.commit.numCommittedDist::overflows            0      0.00%    100.00% # Number of insts commited each cycle (Count)
system.cpu.commit.numCommittedDist::min_value            0                       # Number of insts commited each cycle (Count)
system.cpu.commit.numCommittedDist::max_value            8                       # Number of insts commited each cycle (Count)
system.cpu.commit.numCommittedDist::total     26414772                       # Number of insts commited each cycle (Count)
system.cpu.commit.instsCommitted             10000000                       # Number of instructions committed (Count)
system.cpu.commit.opsCommitted               15171534                       # Number of ops (including micro ops) committed (Count)
system.cpu.commit.memRefs                     7297693                       # Number of memory references committed (Count)
system.cpu.commit.loads                       1965036                       # Number of loads committed (Count)
system.cpu.commit.amos                              0                       # Number of atomic instructions committed (Count)
system.cpu.commit.membars                          20                       # Number of memory barriers committed (Count)
system.cpu.commit.branches                     688478                       # Number of branches committed (Count)
system.cpu.commit.vectorInstructions                0                       # Number of committed Vector instructions. (Count)
system.cpu.commit.floating                          0                       # Number of committed floating point instructions. (Count)
system.cpu.commit.integer                    14487576                       # Number of committed integer instructions. (Count)
system.cpu.commit.functionCalls                  2204                       # Number of function calls committed. (Count)
system.cpu.commit.committedInstType_0::No_OpClass            0      0.00%      0.00% # Class of committed instruction (Count)
system.cpu.commit.committedInstType_0::IntAlu      7873835     51.90%     51.90% # Class of committed instruction (Count)
system.cpu.commit.committedInstType_0::IntMult            6      0.00%     51.90% # Class of committed instruction (Count)
system.cpu.commit.committedInstType_0::IntDiv            0      0.00%     51.90% # Class of committed instruction (Count)
system.cpu.commit.committedInstType_0::FloatAdd            0      0.00%     51.90% # Class of committed instruction (Count)
system.cpu.commit.committedInstType_0::FloatCmp            0      0.00%     51.90% # Class of committed instruction (Count)
system.cpu.commit.committedInstType_0::FloatCvt            0      0.00%     51.90% # Class of committed instruction (Count)
system.cpu.commit.committedInstType_0::FloatMult            0      0.00%     51.90% # Class of committed instruction (Count)
system.cpu.commit.committedInstType_0::FloatMultAcc            0      0.00%     51.90% # Class of committed instruction (Count)
system.cpu.commit.committedInstType_0::FloatDiv            0      0.00%     51.90% # Class of committed instruction (Count)
system.cpu.commit.committedInstType_0::FloatMisc            0      0.00%     51.90% # Class of committed instruction (Count)
system.cpu.commit.committedInstType_0::FloatSqrt            0      0.00%     51.90% # Class of committed instruction (Count)
system.cpu.commit.committedInstType_0::SimdAdd            0      0.00%     51.90% # Class of committed instruction (Count)
system.cpu.commit.committedInstType_0::SimdAddAcc            0      0.00%     51.90% # Class of committed instruction (Count)
system.cpu.commit.committedInstType_0::SimdAlu            0      0.00%     51.90% # Class of committed instruction (Count)
system.cpu.commit.committedInstType_0::SimdCmp            0      0.00%     51.90% # Class of committed instruction (Count)
system.cpu.commit.committedInstType_0::SimdCvt            0      0.00%     51.90% # Class of committed instruction (Count)
system.cpu.commit.committedInstType_0::SimdMisc            0      0.00%     51.90% # Class of committed instruction (Count)
system.cpu.commit.committedInstType_0::SimdMult            0      0.00%     51.90% # Class of committed instruction (Count)
system.cpu.commit.committedInstType_0::SimdMultAcc            0      0.00%     51.90% # Class of committed instruction (Count)
system.cpu.commit.committedInstType_0::SimdShift            0      0.00%     51.90% # Class of committed instruction (Count)
system.cpu.commit.committedInstType_0::SimdShiftAcc            0      0.00%     51.90% # Class of committed instruction (Count)
system.cpu.commit.committedInstType_0::SimdDiv            0      0.00%     51.90% # Class of committed instruction (Count)
system.cpu.commit.committedInstType_0::SimdSqrt            0      0.00%     51.90% # Class of committed instruction (Count)
system.cpu.commit.committedInstType_0::SimdFloatAdd            0      0.00%     51.90% # Class of committed instruction (Count)
system.cpu.commit.committedInstType_0::SimdFloatAlu            0      0.00%     51.90% # Class of committed instruction (Count)
system.cpu.commit.committedInstType_0::SimdFloatCmp            0      0.00%     51.90% # Class of committed instruction (Count)
system.cpu.commit.committedInstType_0::SimdFloatCvt            0      0.00%     51.90% # Class of committed instruction (Count)
system.cpu.commit.committedInstType_0::SimdFloatDiv            0      0.00%     51.90% # Class of committed instruction (Count)
system.cpu.commit.committedInstType_0::SimdFloatMisc            0      0.00%     51.90% # Class of committed instruction (Count)
system.cpu.commit.committedInstType_0::SimdFloatMult            0      0.00%     51.90% # Class of committed instruction (Count)
system.cpu.commit.committedInstType_0::SimdFloatMultAcc            0      0.00%     51.90% # Class of committed instruction (Count)
system.cpu.commit.committedInstType_0::SimdFloatSqrt            0      0.00%     51.90% # Class of committed instruction (Count)
system.cpu.commit.committedInstType_0::SimdReduceAdd            0      0.00%     51.90% # Class of committed instruction (Count)
system.cpu.commit.committedInstType_0::SimdReduceAlu            0      0.00%     51.90% # Class of committed instruction (Count)
system.cpu.commit.committedInstType_0::SimdReduceCmp            0      0.00%     51.90% # Class of committed instruction (Count)
system.cpu.commit.committedInstType_0::SimdFloatReduceAdd            0      0.00%     51.90% # Class of committed instruction (Count)
system.cpu.commit.committedInstType_0::SimdFloatReduceCmp            0      0.00%     51.90% # Class of committed instruction (Count)
system.cpu.commit.committedInstType_0::SimdAes            0      0.00%     51.90% # Class of committed instruction (Count)
system.cpu.commit.committedInstType_0::SimdAesMix            0      0.00%     51.90% # Class of committed instruction (Count)
system.cpu.commit.committedInstType_0::SimdSha1Hash            0      0.00%     51.90% # Class of committed instruction (Count)
system.cpu.commit.committedInstType_0::SimdSha1Hash2            0      0.00%     51.90% # Class of committed instruction (Count)
system.cpu.commit.committedInstType_0::SimdSha256Hash            0      0.00%     51.90% # Class of committed instruction (Count)
system.cpu.commit.committedInstType_0::SimdSha256Hash2            0      0.00%     51.90% # Class of committed instruction (Count)
system.cpu.commit.committedInstType_0::SimdShaSigma2            0      0.00%     51.90% # Class of committed instruction (Count)
system.cpu.commit.committedInstType_0::SimdShaSigma3            0      0.00%     51.90% # Class of committed instruction (Count)
system.cpu.commit.committedInstType_0::SimdPredAlu            0      0.00%     51.90% # Class of committed instruction (Count)
system.cpu.commit.committedInstType_0::MemRead      1965036     12.95%     64.85% # Class of committed instruction (Count)
system.cpu.commit.committedInstType_0::MemWrite      5332657     35.15%    100.00% # Class of committed instruction (Count)
system.cpu.commit.committedInstType_0::FloatMemRead            0      0.00%    100.00% # Class of committed instruction (Count)
system.cpu.commit.committedInstType_0::FloatMemWrite            0      0.00%    100.00% # Class of committed instruction (Count)
system.cpu.commit.committedInstType_0::IprAccess            0      0.00%    100.00% # Class of committed instruction (Count)
system.cpu.commit.committedInstType_0::InstPrefetch            0      0.00%    100.00% # Class of committed instruction (Count)
system.cpu.commit.committedInstType_0::total     15171534                       # Class of committed instruction (Count)
system.cpu.commit.commitEligibleSamples        349183                       # number cycles where commit BW limit reached (Cycle)
system.cpu.dcache.demandHits::cpu.data        1836265                       # number of demand (read+write) hits (Count)
system.cpu.dcache.demandHits::total           1836265                       # number of demand (read+write) hits (Count)
system.cpu.dcache.overallHits::cpu.data       1836265                       # number of overall hits (Count)
system.cpu.dcache.overallHits::total          1836265                       # number of overall hits (Count)
system.cpu.dcache.demandMisses::cpu.data      5290318                       # number of demand (read+write) misses (Count)
system.cpu.dcache.demandMisses::total         5290318                       # number of demand (read+write) misses (Count)
system.cpu.dcache.overallMisses::cpu.data      5290318                       # number of overall misses (Count)
system.cpu.dcache.overallMisses::total        5290318                       # number of overall misses (Count)
system.cpu.dcache.demandMissLatency::cpu.data 364171889302                       # number of demand (read+write) miss ticks (Tick)
system.cpu.dcache.demandMissLatency::total 364171889302                       # number of demand (read+write) miss ticks (Tick)
system.cpu.dcache.overallMissLatency::cpu.data 364171889302                       # number of overall miss ticks (Tick)
system.cpu.dcache.overallMissLatency::total 364171889302                       # number of overall miss ticks (Tick)
system.cpu.dcache.demandAccesses::cpu.data      7126583                       # number of demand (read+write) accesses (Count)
system.cpu.dcache.demandAccesses::total       7126583                       # number of demand (read+write) accesses (Count)
system.cpu.dcache.overallAccesses::cpu.data      7126583                       # number of overall (read+write) accesses (Count)
system.cpu.dcache.overallAccesses::total      7126583                       # number of overall (read+write) accesses (Count)
system.cpu.dcache.demandMissRate::cpu.data     0.742336                       # miss rate for demand accesses (Ratio)
system.cpu.dcache.demandMissRate::total      0.742336                       # miss rate for demand accesses (Ratio)
system.cpu.dcache.overallMissRate::cpu.data     0.742336                       # miss rate for overall accesses (Ratio)
system.cpu.dcache.overallMissRate::total     0.742336                       # miss rate for overall accesses (Ratio)
system.cpu.dcache.demandAvgMissLatency::cpu.data 68837.428922                       # average overall miss latency ((Cycle/Count))
system.cpu.dcache.demandAvgMissLatency::total 68837.428922                       # average overall miss latency ((Cycle/Count))
system.cpu.dcache.overallAvgMissLatency::cpu.data 68837.428922                       # average overall miss latency ((Cycle/Count))
system.cpu.dcache.overallAvgMissLatency::total 68837.428922                       # average overall miss latency ((Cycle/Count))
system.cpu.dcache.blockedCycles::no_mshrs       122175                       # number of cycles access was blocked (Cycle)
system.cpu.dcache.blockedCycles::no_targets            0                       # number of cycles access was blocked (Cycle)
system.cpu.dcache.blockedCauses::no_mshrs        12325                       # number of times access was blocked (Count)
system.cpu.dcache.blockedCauses::no_targets            0                       # number of times access was blocked (Count)
system.cpu.dcache.avgBlocked::no_mshrs       9.912779                       # average number of cycles each access was blocked ((Cycle/Count))
system.cpu.dcache.avgBlocked::no_targets          nan                       # average number of cycles each access was blocked ((Cycle/Count))
system.cpu.dcache.writebacks::writebacks       402303                       # number of writebacks (Count)
system.cpu.dcache.writebacks::total            402303                       # number of writebacks (Count)
system.cpu.dcache.demandMshrHits::cpu.data      4842499                       # number of demand (read+write) MSHR hits (Count)
system.cpu.dcache.demandMshrHits::total       4842499                       # number of demand (read+write) MSHR hits (Count)
system.cpu.dcache.overallMshrHits::cpu.data      4842499                       # number of overall MSHR hits (Count)
system.cpu.dcache.overallMshrHits::total      4842499                       # number of overall MSHR hits (Count)
system.cpu.dcache.demandMshrMisses::cpu.data       447819                       # number of demand (read+write) MSHR misses (Count)
system.cpu.dcache.demandMshrMisses::total       447819                       # number of demand (read+write) MSHR misses (Count)
system.cpu.dcache.overallMshrMisses::cpu.data       447819                       # number of overall MSHR misses (Count)
system.cpu.dcache.overallMshrMisses::total       447819                       # number of overall MSHR misses (Count)
system.cpu.dcache.demandMshrMissLatency::cpu.data  34284434076                       # number of demand (read+write) MSHR miss ticks (Tick)
system.cpu.dcache.demandMshrMissLatency::total  34284434076                       # number of demand (read+write) MSHR miss ticks (Tick)
system.cpu.dcache.overallMshrMissLatency::cpu.data  34284434076                       # number of overall MSHR miss ticks (Tick)
system.cpu.dcache.overallMshrMissLatency::total  34284434076                       # number of overall MSHR miss ticks (Tick)
system.cpu.dcache.demandMshrMissRate::cpu.data     0.062838                       # mshr miss ratio for demand accesses (Ratio)
system.cpu.dcache.demandMshrMissRate::total     0.062838                       # mshr miss ratio for demand accesses (Ratio)
system.cpu.dcache.overallMshrMissRate::cpu.data     0.062838                       # mshr miss ratio for overall accesses (Ratio)
system.cpu.dcache.overallMshrMissRate::total     0.062838                       # mshr miss ratio for overall accesses (Ratio)
system.cpu.dcache.demandAvgMshrMissLatency::cpu.data 76558.685710                       # average overall mshr miss latency ((Cycle/Count))
system.cpu.dcache.demandAvgMshrMissLatency::total 76558.685710                       # average overall mshr miss latency ((Cycle/Count))
system.cpu.dcache.overallAvgMshrMissLatency::cpu.data 76558.685710                       # average overall mshr miss latency ((Cycle/Count))
system.cpu.dcache.overallAvgMshrMissLatency::total 76558.685710                       # average overall mshr miss latency ((Cycle/Count))
system.cpu.dcache.replacements                 447801                       # number of replacements (Count)
system.cpu.dcache.LoadLockedReq.hits::cpu.data           19                       # number of LoadLockedReq hits (Count)
system.cpu.dcache.LoadLockedReq.hits::total           19                       # number of LoadLockedReq hits (Count)
system.cpu.dcache.LoadLockedReq.misses::cpu.data            1                       # number of LoadLockedReq misses (Count)
system.cpu.dcache.LoadLockedReq.misses::total            1                       # number of LoadLockedReq misses (Count)
system.cpu.dcache.LoadLockedReq.missLatency::cpu.data        13500                       # number of LoadLockedReq miss ticks (Tick)
system.cpu.dcache.LoadLockedReq.missLatency::total        13500                       # number of LoadLockedReq miss ticks (Tick)
system.cpu.dcache.LoadLockedReq.accesses::cpu.data           20                       # number of LoadLockedReq accesses(hits+misses) (Count)
system.cpu.dcache.LoadLockedReq.accesses::total           20                       # number of LoadLockedReq accesses(hits+misses) (Count)
system.cpu.dcache.LoadLockedReq.missRate::cpu.data     0.050000                       # miss rate for LoadLockedReq accesses (Ratio)
system.cpu.dcache.LoadLockedReq.missRate::total     0.050000                       # miss rate for LoadLockedReq accesses (Ratio)
system.cpu.dcache.LoadLockedReq.avgMissLatency::cpu.data        13500                       # average LoadLockedReq miss latency ((Tick/Count))
system.cpu.dcache.LoadLockedReq.avgMissLatency::total        13500                       # average LoadLockedReq miss latency ((Tick/Count))
system.cpu.dcache.LoadLockedReq.mshrHits::cpu.data            1                       # number of LoadLockedReq MSHR hits (Count)
system.cpu.dcache.LoadLockedReq.mshrHits::total            1                       # number of LoadLockedReq MSHR hits (Count)
system.cpu.dcache.ReadReq.hits::cpu.data      1670312                       # number of ReadReq hits (Count)
system.cpu.dcache.ReadReq.hits::total         1670312                       # number of ReadReq hits (Count)
system.cpu.dcache.ReadReq.misses::cpu.data       123758                       # number of ReadReq misses (Count)
system.cpu.dcache.ReadReq.misses::total        123758                       # number of ReadReq misses (Count)
system.cpu.dcache.ReadReq.missLatency::cpu.data   1721702000                       # number of ReadReq miss ticks (Tick)
system.cpu.dcache.ReadReq.missLatency::total   1721702000                       # number of ReadReq miss ticks (Tick)
system.cpu.dcache.ReadReq.accesses::cpu.data      1794070                       # number of ReadReq accesses(hits+misses) (Count)
system.cpu.dcache.ReadReq.accesses::total      1794070                       # number of ReadReq accesses(hits+misses) (Count)
system.cpu.dcache.ReadReq.missRate::cpu.data     0.068982                       # miss rate for ReadReq accesses (Ratio)
system.cpu.dcache.ReadReq.missRate::total     0.068982                       # miss rate for ReadReq accesses (Ratio)
system.cpu.dcache.ReadReq.avgMissLatency::cpu.data 13911.844083                       # average ReadReq miss latency ((Tick/Count))
system.cpu.dcache.ReadReq.avgMissLatency::total 13911.844083                       # average ReadReq miss latency ((Tick/Count))
system.cpu.dcache.ReadReq.mshrHits::cpu.data        73943                       # number of ReadReq MSHR hits (Count)
system.cpu.dcache.ReadReq.mshrHits::total        73943                       # number of ReadReq MSHR hits (Count)
system.cpu.dcache.ReadReq.mshrMisses::cpu.data        49815                       # number of ReadReq MSHR misses (Count)
system.cpu.dcache.ReadReq.mshrMisses::total        49815                       # number of ReadReq MSHR misses (Count)
system.cpu.dcache.ReadReq.mshrMissLatency::cpu.data    675657000                       # number of ReadReq MSHR miss ticks (Tick)
system.cpu.dcache.ReadReq.mshrMissLatency::total    675657000                       # number of ReadReq MSHR miss ticks (Tick)
system.cpu.dcache.ReadReq.mshrMissRate::cpu.data     0.027766                       # mshr miss rate for ReadReq accesses (Ratio)
system.cpu.dcache.ReadReq.mshrMissRate::total     0.027766                       # mshr miss rate for ReadReq accesses (Ratio)
system.cpu.dcache.ReadReq.avgMshrMissLatency::cpu.data 13563.324300                       # average ReadReq mshr miss latency ((Tick/Count))
system.cpu.dcache.ReadReq.avgMshrMissLatency::total 13563.324300                       # average ReadReq mshr miss latency ((Tick/Count))
system.cpu.dcache.StoreCondReq.hits::cpu.data           20                       # number of StoreCondReq hits (Count)
system.cpu.dcache.StoreCondReq.hits::total           20                       # number of StoreCondReq hits (Count)
system.cpu.dcache.StoreCondReq.accesses::cpu.data           20                       # number of StoreCondReq accesses(hits+misses) (Count)
system.cpu.dcache.StoreCondReq.accesses::total           20                       # number of StoreCondReq accesses(hits+misses) (Count)
system.cpu.dcache.WriteReq.hits::cpu.data       165953                       # number of WriteReq hits (Count)
system.cpu.dcache.WriteReq.hits::total         165953                       # number of WriteReq hits (Count)
system.cpu.dcache.WriteReq.misses::cpu.data      5166560                       # number of WriteReq misses (Count)
system.cpu.dcache.WriteReq.misses::total      5166560                       # number of WriteReq misses (Count)
system.cpu.dcache.WriteReq.missLatency::cpu.data 362450187302                       # number of WriteReq miss ticks (Tick)
system.cpu.dcache.WriteReq.missLatency::total 362450187302                       # number of WriteReq miss ticks (Tick)
system.cpu.dcache.WriteReq.accesses::cpu.data      5332513                       # number of WriteReq accesses(hits+misses) (Count)
system.cpu.dcache.WriteReq.accesses::total      5332513                       # number of WriteReq accesses(hits+misses) (Count)
system.cpu.dcache.WriteReq.missRate::cpu.data     0.968879                       # miss rate for WriteReq accesses (Ratio)
system.cpu.dcache.WriteReq.missRate::total     0.968879                       # miss rate for WriteReq accesses (Ratio)
system.cpu.dcache.WriteReq.avgMissLatency::cpu.data 70153.097477                       # average WriteReq miss latency ((Tick/Count))
system.cpu.dcache.WriteReq.avgMissLatency::total 70153.097477                       # average WriteReq miss latency ((Tick/Count))
system.cpu.dcache.WriteReq.mshrHits::cpu.data      4768556                       # number of WriteReq MSHR hits (Count)
system.cpu.dcache.WriteReq.mshrHits::total      4768556                       # number of WriteReq MSHR hits (Count)
system.cpu.dcache.WriteReq.mshrMisses::cpu.data       398004                       # number of WriteReq MSHR misses (Count)
system.cpu.dcache.WriteReq.mshrMisses::total       398004                       # number of WriteReq MSHR misses (Count)
system.cpu.dcache.WriteReq.mshrMissLatency::cpu.data  33608777076                       # number of WriteReq MSHR miss ticks (Tick)
system.cpu.dcache.WriteReq.mshrMissLatency::total  33608777076                       # number of WriteReq MSHR miss ticks (Tick)
system.cpu.dcache.WriteReq.mshrMissRate::cpu.data     0.074637                       # mshr miss rate for WriteReq accesses (Ratio)
system.cpu.dcache.WriteReq.mshrMissRate::total     0.074637                       # mshr miss rate for WriteReq accesses (Ratio)
system.cpu.dcache.WriteReq.avgMshrMissLatency::cpu.data 84443.314831                       # average WriteReq mshr miss latency ((Tick/Count))
system.cpu.dcache.WriteReq.avgMshrMissLatency::total 84443.314831                       # average WriteReq mshr miss latency ((Tick/Count))
system.cpu.dcache.power_state.pwrStateResidencyTicks::UNDEFINED  13240223500                       # Cumulative time (in ticks) in various power states (Tick)
system.cpu.dcache.tags.tagsInUse            15.999234                       # Average ticks per tags in use ((Tick/Count))
system.cpu.dcache.tags.totalRefs              2284121                       # Total number of references to valid blocks. (Count)
system.cpu.dcache.tags.sampledRefs             447817                       # Sample count of references to valid blocks. (Count)
system.cpu.dcache.tags.avgRefs               5.100568                       # Average number of references to valid blocks. ((Count/Count))
system.cpu.dcache.tags.warmupTick              161000                       # The tick when the warmup percentage was hit. (Tick)
system.cpu.dcache.tags.occupancies::cpu.data    15.999234                       # Average occupied blocks per tick, per requestor ((Count/Tick))
system.cpu.dcache.tags.avgOccs::cpu.data     0.999952                       # Average percentage of cache occupancy ((Ratio/Tick))
system.cpu.dcache.tags.avgOccs::total        0.999952                       # Average percentage of cache occupancy ((Ratio/Tick))
system.cpu.dcache.tags.occupanciesTaskId::1024           16                       # Occupied blocks per task id (Count)
system.cpu.dcache.tags.ageTaskId_1024::0           16                       # Occupied blocks per task id, per block age (Count)
system.cpu.dcache.tags.ratioOccsTaskId::1024            1                       # Ratio of occupied blocks and all blocks, per task id (Ratio)
system.cpu.dcache.tags.tagAccesses           14701063                       # Number of tag accesses (Count)
system.cpu.dcache.tags.dataAccesses          14701063                       # Number of data accesses (Count)
system.cpu.dcache.tags.power_state.pwrStateResidencyTicks::UNDEFINED  13240223500                       # Cumulative time (in ticks) in various power states (Tick)
system.cpu.decode.idleCycles                   443519                       # Number of cycles decode is idle (Cycle)
system.cpu.decode.blockedCycles              24026018                       # Number of cycles decode is blocked (Cycle)
system.cpu.decode.runCycles                   1117961                       # Number of cycles decode is running (Cycle)
system.cpu.decode.unblockCycles                851698                       # Number of cycles decode is unblocking (Cycle)
system.cpu.decode.squashCycles                   6453                       # Number of cycles decode is squashing (Cycle)
system.cpu.decode.branchResolved               712102                       # Number of times decode resolved a branch (Count)
system.cpu.decode.branchMispred                   243                       # Number of times decode detected a branch misprediction (Count)
system.cpu.decode.decodedInsts               15644467                       # Number of instructions handled by decode (Count)
system.cpu.decode.squashedInsts                   976                       # Number of squashed instructions handled by decode (Count)
system.cpu.fetch.icacheStallCycles             315821                       # Number of cycles fetch is stalled on an Icache miss (Cycle)
system.cpu.fetch.insts                       10417597                       # Number of instructions fetch has processed (Count)
system.cpu.fetch.branches                      734237                       # Number of branches that fetch encountered (Count)
system.cpu.fetch.predictedBranches             730045                       # Number of branches that fetch has predicted taken (Count)
system.cpu.fetch.cycles                      26123057                       # Number of cycles fetch has run and was not squashing or blocked (Cycle)
system.cpu.fetch.squashCycles                   13388                       # Number of cycles fetch has spent squashing (Cycle)
system.cpu.fetch.miscStallCycles                    6                       # Number of cycles fetch has spent waiting on interrupts, or bad addresses, or out of MSHRs (Cycle)
system.cpu.fetch.pendingTrapStallCycles            38                       # Number of stall cycles due to pending traps (Cycle)
system.cpu.fetch.icacheWaitRetryStallCycles           33                       # Number of stall cycles due to full MSHR (Cycle)
system.cpu.fetch.cacheLines                    296996                       # Number of cache lines fetched (Count)
system.cpu.fetch.icacheSquashes                   769                       # Number of outstanding Icache misses that were squashed (Count)
system.cpu.fetch.nisnDist::samples           26445649                       # Number of instructions fetched each cycle (Total) (Count)
system.cpu.fetch.nisnDist::mean              0.601389                       # Number of instructions fetched each cycle (Total) (Count)
system.cpu.fetch.nisnDist::stdev             2.004678                       # Number of instructions fetched each cycle (Total) (Count)
system.cpu.fetch.nisnDist::underflows               0      0.00%      0.00% # Number of instructions fetched each cycle (Total) (Count)
system.cpu.fetch.nisnDist::0                 23781848     89.93%     89.93% # Number of instructions fetched each cycle (Total) (Count)
system.cpu.fetch.nisnDist::1                   453066      1.71%     91.64% # Number of instructions fetched each cycle (Total) (Count)
system.cpu.fetch.nisnDist::2                    99289      0.38%     92.02% # Number of instructions fetched each cycle (Total) (Count)
system.cpu.fetch.nisnDist::3                   116409      0.44%     92.46% # Number of instructions fetched each cycle (Total) (Count)
system.cpu.fetch.nisnDist::4                    95485      0.36%     92.82% # Number of instructions fetched each cycle (Total) (Count)
system.cpu.fetch.nisnDist::5                   129580      0.49%     93.31% # Number of instructions fetched each cycle (Total) (Count)
system.cpu.fetch.nisnDist::6                    97317      0.37%     93.68% # Number of instructions fetched each cycle (Total) (Count)
system.cpu.fetch.nisnDist::7                    91729      0.35%     94.02% # Number of instructions fetched each cycle (Total) (Count)
system.cpu.fetch.nisnDist::8                  1580926      5.98%    100.00% # Number of instructions fetched each cycle (Total) (Count)
system.cpu.fetch.nisnDist::overflows                0      0.00%    100.00% # Number of instructions fetched each cycle (Total) (Count)
system.cpu.fetch.nisnDist::min_value                0                       # Number of instructions fetched each cycle (Total) (Count)
system.cpu.fetch.nisnDist::max_value                8                       # Number of instructions fetched each cycle (Total) (Count)
system.cpu.fetch.nisnDist::total             26445649                       # Number of instructions fetched each cycle (Total) (Count)
system.cpu.fetch.branchRate                  0.027728                       # Number of branch fetches per cycle (Ratio)
system.cpu.fetch.rate                        0.393407                       # Number of inst fetches per cycle ((Count/Cycle))
system.cpu.icache.demandHits::cpu.inst         295778                       # number of demand (read+write) hits (Count)
system.cpu.icache.demandHits::total            295778                       # number of demand (read+write) hits (Count)
system.cpu.icache.overallHits::cpu.inst        295778                       # number of overall hits (Count)
system.cpu.icache.overallHits::total           295778                       # number of overall hits (Count)
system.cpu.icache.demandMisses::cpu.inst         1218                       # number of demand (read+write) misses (Count)
system.cpu.icache.demandMisses::total            1218                       # number of demand (read+write) misses (Count)
system.cpu.icache.overallMisses::cpu.inst         1218                       # number of overall misses (Count)
system.cpu.icache.overallMisses::total           1218                       # number of overall misses (Count)
system.cpu.icache.demandMissLatency::cpu.inst     51243498                       # number of demand (read+write) miss ticks (Tick)
system.cpu.icache.demandMissLatency::total     51243498                       # number of demand (read+write) miss ticks (Tick)
system.cpu.icache.overallMissLatency::cpu.inst     51243498                       # number of overall miss ticks (Tick)
system.cpu.icache.overallMissLatency::total     51243498                       # number of overall miss ticks (Tick)
system.cpu.icache.demandAccesses::cpu.inst       296996                       # number of demand (read+write) accesses (Count)
system.cpu.icache.demandAccesses::total        296996                       # number of demand (read+write) accesses (Count)
system.cpu.icache.overallAccesses::cpu.inst       296996                       # number of overall (read+write) accesses (Count)
system.cpu.icache.overallAccesses::total       296996                       # number of overall (read+write) accesses (Count)
system.cpu.icache.demandMissRate::cpu.inst     0.004101                       # miss rate for demand accesses (Ratio)
system.cpu.icache.demandMissRate::total      0.004101                       # miss rate for demand accesses (Ratio)
system.cpu.icache.overallMissRate::cpu.inst     0.004101                       # miss rate for overall accesses (Ratio)
system.cpu.icache.overallMissRate::total     0.004101                       # miss rate for overall accesses (Ratio)
system.cpu.icache.demandAvgMissLatency::cpu.inst 42071.837438                       # average overall miss latency ((Cycle/Count))
system.cpu.icache.demandAvgMissLatency::total 42071.837438                       # average overall miss latency ((Cycle/Count))
system.cpu.icache.overallAvgMissLatency::cpu.inst 42071.837438                       # average overall miss latency ((Cycle/Count))
system.cpu.icache.overallAvgMissLatency::total 42071.837438                       # average overall miss latency ((Cycle/Count))
system.cpu.icache.blockedCycles::no_mshrs          550                       # number of cycles access was blocked (Cycle)
system.cpu.icache.blockedCycles::no_targets            0                       # number of cycles access was blocked (Cycle)
system.cpu.icache.blockedCauses::no_mshrs           12                       # number of times access was blocked (Count)
system.cpu.icache.blockedCauses::no_targets            0                       # number of times access was blocked (Count)
system.cpu.icache.avgBlocked::no_mshrs      45.833333                       # average number of cycles each access was blocked ((Cycle/Count))
system.cpu.icache.avgBlocked::no_targets          nan                       # average number of cycles each access was blocked ((Cycle/Count))
system.cpu.icache.writebacks::writebacks         1004                       # number of writebacks (Count)
system.cpu.icache.writebacks::total              1004                       # number of writebacks (Count)
system.cpu.icache.demandMshrHits::cpu.inst          198                       # number of demand (read+write) MSHR hits (Count)
system.cpu.icache.demandMshrHits::total           198                       # number of demand (read+write) MSHR hits (Count)
system.cpu.icache.overallMshrHits::cpu.inst          198                       # number of overall MSHR hits (Count)
system.cpu.icache.overallMshrHits::total          198                       # number of overall MSHR hits (Count)
system.cpu.icache.demandMshrMisses::cpu.inst         1020                       # number of demand (read+write) MSHR misses (Count)
system.cpu.icache.demandMshrMisses::total         1020                       # number of demand (read+write) MSHR misses (Count)
system.cpu.icache.overallMshrMisses::cpu.inst         1020                       # number of overall MSHR misses (Count)
system.cpu.icache.overallMshrMisses::total         1020                       # number of overall MSHR misses (Count)
system.cpu.icache.demandMshrMissLatency::cpu.inst     42235998                       # number of demand (read+write) MSHR miss ticks (Tick)
system.cpu.icache.demandMshrMissLatency::total     42235998                       # number of demand (read+write) MSHR miss ticks (Tick)
system.cpu.icache.overallMshrMissLatency::cpu.inst     42235998                       # number of overall MSHR miss ticks (Tick)
system.cpu.icache.overallMshrMissLatency::total     42235998                       # number of overall MSHR miss ticks (Tick)
system.cpu.icache.demandMshrMissRate::cpu.inst     0.003434                       # mshr miss ratio for demand accesses (Ratio)
system.cpu.icache.demandMshrMissRate::total     0.003434                       # mshr miss ratio for demand accesses (Ratio)
system.cpu.icache.overallMshrMissRate::cpu.inst     0.003434                       # mshr miss ratio for overall accesses (Ratio)
system.cpu.icache.overallMshrMissRate::total     0.003434                       # mshr miss ratio for overall accesses (Ratio)
system.cpu.icache.demandAvgMshrMissLatency::cpu.inst 41407.841176                       # average overall mshr miss latency ((Cycle/Count))
system.cpu.icache.demandAvgMshrMissLatency::total 41407.841176                       # average overall mshr miss latency ((Cycle/Count))
system.cpu.icache.overallAvgMshrMissLatency::cpu.inst 41407.841176                       # average overall mshr miss latency ((Cycle/Count))
system.cpu.icache.overallAvgMshrMissLatency::total 41407.841176                       # average overall mshr miss latency ((Cycle/Count))
system.cpu.icache.replacements                   1004                       # number of replacements (Count)
system.cpu.icache.ReadReq.hits::cpu.inst       295778                       # number of ReadReq hits (Count)
system.cpu.icache.ReadReq.hits::total          295778                       # number of ReadReq hits (Count)
system.cpu.icache.ReadReq.misses::cpu.inst         1218                       # number of ReadReq misses (Count)
system.cpu.icache.ReadReq.misses::total          1218                       # number of ReadReq misses (Count)
system.cpu.icache.ReadReq.missLatency::cpu.inst     51243498                       # number of ReadReq miss ticks (Tick)
system.cpu.icache.ReadReq.missLatency::total     51243498                       # number of ReadReq miss ticks (Tick)
system.cpu.icache.ReadReq.accesses::cpu.inst       296996                       # number of ReadReq accesses(hits+misses) (Count)
system.cpu.icache.ReadReq.accesses::total       296996                       # number of ReadReq accesses(hits+misses) (Count)
system.cpu.icache.ReadReq.missRate::cpu.inst     0.004101                       # miss rate for ReadReq accesses (Ratio)
system.cpu.icache.ReadReq.missRate::total     0.004101                       # miss rate for ReadReq accesses (Ratio)
system.cpu.icache.ReadReq.avgMissLatency::cpu.inst 42071.837438                       # average ReadReq miss latency ((Tick/Count))
system.cpu.icache.ReadReq.avgMissLatency::total 42071.837438                       # average ReadReq miss latency ((Tick/Count))
system.cpu.icache.ReadReq.mshrHits::cpu.inst          198                       # number of ReadReq MSHR hits (Count)
system.cpu.icache.ReadReq.mshrHits::total          198                       # number of ReadReq MSHR hits (Count)
system.cpu.icache.ReadReq.mshrMisses::cpu.inst         1020                       # number of ReadReq MSHR misses (Count)
system.cpu.icache.ReadReq.mshrMisses::total         1020                       # number of ReadReq MSHR misses (Count)
system.cpu.icache.ReadReq.mshrMissLatency::cpu.inst     42235998                       # number of ReadReq MSHR miss ticks (Tick)
system.cpu.icache.ReadReq.mshrMissLatency::total     42235998                       # number of ReadReq MSHR miss ticks (Tick)
system.cpu.icache.ReadReq.mshrMissRate::cpu.inst     0.003434                       # mshr miss rate for ReadReq accesses (Ratio)
system.cpu.icache.ReadReq.mshrMissRate::total     0.003434                       # mshr miss rate for ReadReq accesses (Ratio)
system.cpu.icache.ReadReq.avgMshrMissLatency::cpu.inst 41407.841176                       # average ReadReq mshr miss latency ((Tick/Count))
system.cpu.icache.ReadReq.avgMshrMissLatency::total 41407.841176                       # average ReadReq mshr miss latency ((Tick/Count))
system.cpu.icache.power_state.pwrStateResidencyTicks::UNDEFINED  13240223500                       # Cumulative time (in ticks) in various power states (Tick)
system.cpu.icache.tags.tagsInUse            15.999143                       # Average ticks per tags in use ((Tick/Count))
system.cpu.icache.tags.totalRefs               296798                       # Total number of references to valid blocks. (Count)
system.cpu.icache.tags.sampledRefs               1020                       # Sample count of references to valid blocks. (Count)
system.cpu.icache.tags.avgRefs             290.978431                       # Average number of references to valid blocks. ((Count/Count))
system.cpu.icache.tags.warmupTick               87500                       # The tick when the warmup percentage was hit. (Tick)
system.cpu.icache.tags.occupancies::cpu.inst    15.999143                       # Average occupied blocks per tick, per requestor ((Count/Tick))
system.cpu.icache.tags.avgOccs::cpu.inst     0.999946                       # Average percentage of cache occupancy ((Ratio/Tick))
system.cpu.icache.tags.avgOccs::total        0.999946                       # Average percentage of cache occupancy ((Ratio/Tick))
system.cpu.icache.tags.occupanciesTaskId::1024           16                       # Occupied blocks per task id (Count)
system.cpu.icache.tags.ageTaskId_1024::4           16                       # Occupied blocks per task id, per block age (Count)
system.cpu.icache.tags.ratioOccsTaskId::1024            1                       # Ratio of occupied blocks and all blocks, per task id (Ratio)
system.cpu.icache.tags.tagAccesses             595012                       # Number of tag accesses (Count)
system.cpu.icache.tags.dataAccesses            595012                       # Number of data accesses (Count)
system.cpu.icache.tags.power_state.pwrStateResidencyTicks::UNDEFINED  13240223500                       # Cumulative time (in ticks) in various power states (Tick)
system.cpu.lsq0.forwLoads                      177454                       # Number of loads that had data forwarded from stores (Count)
system.cpu.lsq0.squashedLoads                   10146                       # Number of loads squashed (Count)
system.cpu.lsq0.ignoredResponses                   50                       # Number of memory responses ignored because the instruction is squashed (Count)
system.cpu.lsq0.memOrderViolation                 122                       # Number of memory ordering violations (Count)
system.cpu.lsq0.squashedStores                 169316                       # Number of stores squashed (Count)
system.cpu.lsq0.rescheduledLoads                  317                       # Number of loads that were rescheduled (Count)
system.cpu.lsq0.blockedByCache                  11572                       # Number of times an access to memory failed due to the cache being blocked (Count)
system.cpu.lsq0.loadToUse::samples            1965036                       # Distribution of cycle latency between the first time a load is issued and its completion (Unspecified)
system.cpu.lsq0.loadToUse::mean              5.619786                       # Distribution of cycle latency between the first time a load is issued and its completion (Unspecified)
system.cpu.lsq0.loadToUse::stdev             8.677920                       # Distribution of cycle latency between the first time a load is issued and its completion (Unspecified)
system.cpu.lsq0.loadToUse::0-9                1787227     90.95%     90.95% # Distribution of cycle latency between the first time a load is issued and its completion (Unspecified)
system.cpu.lsq0.loadToUse::10-19                40741      2.07%     93.02% # Distribution of cycle latency between the first time a load is issued and its completion (Unspecified)
system.cpu.lsq0.loadToUse::20-29                99680      5.07%     98.10% # Distribution of cycle latency between the first time a load is issued and its completion (Unspecified)
system.cpu.lsq0.loadToUse::30-39                12551      0.64%     98.74% # Distribution of cycle latency between the first time a load is issued and its completion (Unspecified)
system.cpu.lsq0.loadToUse::40-49                10848      0.55%     99.29% # Distribution of cycle latency between the first time a load is issued and its completion (Unspecified)
system.cpu.lsq0.loadToUse::50-59                 7520      0.38%     99.67% # Distribution of cycle latency between the first time a load is issued and its completion (Unspecified)
system.cpu.lsq0.loadToUse::60-69                 4512      0.23%     99.90% # Distribution of cycle latency between the first time a load is issued and its completion (Unspecified)
system.cpu.lsq0.loadToUse::70-79                  480      0.02%     99.92% # Distribution of cycle latency between the first time a load is issued and its completion (Unspecified)
system.cpu.lsq0.loadToUse::80-89                  193      0.01%     99.93% # Distribution of cycle latency between the first time a load is issued and its completion (Unspecified)
system.cpu.lsq0.loadToUse::90-99                   66      0.00%     99.94% # Distribution of cycle latency between the first time a load is issued and its completion (Unspecified)
system.cpu.lsq0.loadToUse::100-109                 56      0.00%     99.94% # Distribution of cycle latency between the first time a load is issued and its completion (Unspecified)
system.cpu.lsq0.loadToUse::110-119                 99      0.01%     99.95% # Distribution of cycle latency between the first time a load is issued and its completion (Unspecified)
system.cpu.lsq0.loadToUse::120-129                250      0.01%     99.96% # Distribution of cycle latency between the first time a load is issued and its completion (Unspecified)
system.cpu.lsq0.loadToUse::130-139                303      0.02%     99.97% # Distribution of cycle latency between the first time a load is issued and its completion (Unspecified)
system.cpu.lsq0.loadToUse::140-149                108      0.01%     99.98% # Distribution of cycle latency between the first time a load is issued and its completion (Unspecified)
system.cpu.lsq0.loadToUse::150-159                111      0.01%     99.99% # Distribution of cycle latency between the first time a load is issued and its completion (Unspecified)
system.cpu.lsq0.loadToUse::160-169                 46      0.00%     99.99% # Distribution of cycle latency between the first time a load is issued and its completion (Unspecified)
system.cpu.lsq0.loadToUse::170-179                 40      0.00%     99.99% # Distribution of cycle latency between the first time a load is issued and its completion (Unspecified)
system.cpu.lsq0.loadToUse::180-189                 36      0.00%     99.99% # Distribution of cycle latency between the first time a load is issued and its completion (Unspecified)
system.cpu.lsq0.loadToUse::190-199                 15      0.00%     99.99% # Distribution of cycle latency between the first time a load is issued and its completion (Unspecified)
system.cpu.lsq0.loadToUse::200-209                 45      0.00%     99.99% # Distribution of cycle latency between the first time a load is issued and its completion (Unspecified)
system.cpu.lsq0.loadToUse::210-219                  6      0.00%     99.99% # Distribution of cycle latency between the first time a load is issued and its completion (Unspecified)
system.cpu.lsq0.loadToUse::230-239                 26      0.00%    100.00% # Distribution of cycle latency between the first time a load is issued and its completion (Unspecified)
[...]
system.mem_ctrls.dram.perBankWrBursts::7        18255                       # Per bank write bursts (Count)
system.mem_ctrls.dram.perBankWrBursts::8        18308                       # Per bank write bursts (Count)
system.mem_ctrls.dram.perBankWrBursts::9        18247                       # Per bank write bursts (Count)
system.mem_ctrls.dram.perBankWrBursts::10        18360                       # Per bank write bursts (Count)
system.mem_ctrls.dram.perBankWrBursts::11        18371                       # Per bank write bursts (Count)
system.mem_ctrls.dram.perBankWrBursts::12        18376                       # Per bank write bursts (Count)
system.mem_ctrls.dram.perBankWrBursts::13        18335                       # Per bank write bursts (Count)
system.mem_ctrls.dram.perBankWrBursts::14        18304                       # Per bank write bursts (Count)
system.mem_ctrls.dram.perBankWrBursts::15        18304                       # Per bank write bursts (Count)
system.mem_ctrls.dram.totQLat              9220078000                       # Total ticks spent queuing (Tick)
system.mem_ctrls.dram.totBusLat            1629800000                       # Total ticks spent in databus transfers (Tick)
system.mem_ctrls.dram.totMemAccLat        15331828000                       # Total ticks spent from burst creation until serviced by the DRAM (Tick)
system.mem_ctrls.dram.avgQLat                28285.92                       # Average queueing delay per DRAM burst ((Tick/Count))
system.mem_ctrls.dram.avgBusLat               5000.00                       # Average bus latency per DRAM burst ((Tick/Count))
system.mem_ctrls.dram.avgMemAccLat           47035.92                       # Average memory access latency per DRAM burst ((Tick/Count))
system.mem_ctrls.dram.readRowHits              297141                       # Number of row buffer hits during reads (Count)
system.mem_ctrls.dram.writeRowHits             271746                       # Number of row buffer hits during writes (Count)
system.mem_ctrls.dram.readRowHitRate            91.16                       # Row buffer hit rate for reads (Ratio)
system.mem_ctrls.dram.writeRowHitRate           92.88                       # Row buffer hit rate for writes (Ratio)
system.mem_ctrls.dram.bytesPerActivate::samples        49655                       # Bytes accessed per row activation (Byte)
system.mem_ctrls.dram.bytesPerActivate::mean   797.217924                       # Bytes accessed per row activation (Byte)
system.mem_ctrls.dram.bytesPerActivate::gmean   671.446607                       # Bytes accessed per row activation (Byte)
system.mem_ctrls.dram.bytesPerActivate::stdev   327.843856                       # Bytes accessed per row activation (Byte)
system.mem_ctrls.dram.bytesPerActivate::0-127          422      0.85%      0.85% # Bytes accessed per row activation (Byte)
system.mem_ctrls.dram.bytesPerActivate::128-255         5514     11.10%     11.95% # Bytes accessed per row activation (Byte)
system.mem_ctrls.dram.bytesPerActivate::256-383         2273      4.58%     16.53% # Bytes accessed per row activation (Byte)
system.mem_ctrls.dram.bytesPerActivate::384-511         2941      5.92%     22.45% # Bytes accessed per row activation (Byte)
system.mem_ctrls.dram.bytesPerActivate::512-639          513      1.03%     23.49% # Bytes accessed per row activation (Byte)
system.mem_ctrls.dram.bytesPerActivate::640-767         2301      4.63%     28.12% # Bytes accessed per row activation (Byte)
system.mem_ctrls.dram.bytesPerActivate::768-895         2667      5.37%     33.49% # Bytes accessed per row activation (Byte)
system.mem_ctrls.dram.bytesPerActivate::896-1023         8794     17.71%     51.20% # Bytes accessed per row activation (Byte)
system.mem_ctrls.dram.bytesPerActivate::1024-1151        24230     48.80%    100.00% # Bytes accessed per row activation (Byte)
system.mem_ctrls.dram.bytesPerActivate::total        49655                       # Bytes accessed per row activation (Byte)
system.mem_ctrls.dram.bytesRead              20861440                       # Total number of bytes read from DRAM (Byte)
system.mem_ctrls.dram.bytesWritten           18725376                       # Total number of bytes written to DRAM (Byte)
system.mem_ctrls.dram.avgRdBW             1575.610865                       # Average DRAM read bandwidth in MiBytes/s ((Byte/Second))
system.mem_ctrls.dram.avgWrBW             1414.279449                       # Average DRAM write bandwidth in MiBytes/s ((Byte/Second))
system.mem_ctrls.dram.peakBW                 12800.00                       # Theoretical peak bandwidth in MiByte/s ((Byte/Second))
system.mem_ctrls.dram.busUtil                   23.36                       # Data bus utilization in percentage (Ratio)
system.mem_ctrls.dram.busUtilRead               12.31                       # Data bus utilization in percentage for reads (Ratio)
system.mem_ctrls.dram.busUtilWrite              11.05                       # Data bus utilization in percentage for writes (Ratio)
system.mem_ctrls.dram.pageHitRate               91.97                       # Row buffer hit rate, read and write combined (Ratio)
system.mem_ctrls.dram.power_state.pwrStateResidencyTicks::UNDEFINED  13240223500                       # Cumulative time (in ticks) in various power states (Tick)
system.mem_ctrls.dram.rank0.actEnergy       176657880                       # Energy for activate commands per rank (pJ) (Joule)
system.mem_ctrls.dram.rank0.preEnergy        93888300                       # Energy for precharge commands per rank (pJ) (Joule)
system.mem_ctrls.dram.rank0.readEnergy     1161535200                       # Energy for read commands per rank (pJ) (Joule)
system.mem_ctrls.dram.rank0.writeEnergy     762010380                       # Energy for write commands per rank (pJ) (Joule)
system.mem_ctrls.dram.rank0.refreshEnergy 1044888000.000000                       # Energy for refresh commands per rank (pJ) (Joule)
system.mem_ctrls.dram.rank0.actBackEnergy   3544313010                       # Energy for active background per rank (pJ) (Joule)
system.mem_ctrls.dram.rank0.preBackEnergy   2099561280                       # Energy for precharge background per rank (pJ) (Joule)
system.mem_ctrls.dram.rank0.actPowerDownEnergy            0                       # Energy for active power-down per rank (pJ) (Joule)
system.mem_ctrls.dram.rank0.prePowerDownEnergy            0                       # Energy for precharge power-down per rank (pJ) (Joule)
system.mem_ctrls.dram.rank0.selfRefreshEnergy            0                       # Energy for self refresh per rank (pJ) (Joule)
system.mem_ctrls.dram.rank0.totalEnergy    8882854050                       # Total energy per rank (pJ) (Joule)
system.mem_ctrls.dram.rank0.averagePower   670.899102                       # Core power per rank (mW) (Watt)
system.mem_ctrls.dram.rank0.totalIdleTime            0                       # Total Idle time Per DRAM Rank (Tick)
system.mem_ctrls.dram.rank0.pwrStateTime::IDLE   5327579750                       # Time in different power states (Tick)
system.mem_ctrls.dram.rank0.pwrStateTime::REF    442000000                       # Time in different power states (Tick)
system.mem_ctrls.dram.rank0.pwrStateTime::SREF            0                       # Time in different power states (Tick)
system.mem_ctrls.dram.rank0.pwrStateTime::PRE_PDN            0                       # Time in different power states (Tick)
system.mem_ctrls.dram.rank0.pwrStateTime::ACT   7470643750                       # Time in different power states (Tick)
system.mem_ctrls.dram.rank0.pwrStateTime::ACT_PDN            0                       # Time in different power states (Tick)
system.mem_ctrls.dram.rank1.actEnergy       177893100                       # Energy for activate commands per rank (pJ) (Joule)
system.mem_ctrls.dram.rank1.preEnergy        94552425                       # Energy for precharge commands per rank (pJ) (Joule)
system.mem_ctrls.dram.rank1.readEnergy     1165819200                       # Energy for read commands per rank (pJ) (Joule)
system.mem_ctrls.dram.rank1.writeEnergy     765278100                       # Energy for write commands per rank (pJ) (Joule)
system.mem_ctrls.dram.rank1.refreshEnergy 1044888000.000000                       # Energy for refresh commands per rank (pJ) (Joule)
system.mem_ctrls.dram.rank1.actBackEnergy   3539164770                       # Energy for active background per rank (pJ) (Joule)
system.mem_ctrls.dram.rank1.preBackEnergy   2103896640                       # Energy for precharge background per rank (pJ) (Joule)
system.mem_ctrls.dram.rank1.actPowerDownEnergy            0                       # Energy for active power-down per rank (pJ) (Joule)
system.mem_ctrls.dram.rank1.prePowerDownEnergy            0                       # Energy for precharge power-down per rank (pJ) (Joule)
system.mem_ctrls.dram.rank1.selfRefreshEnergy            0                       # Energy for self refresh per rank (pJ) (Joule)
system.mem_ctrls.dram.rank1.totalEnergy    8891492235                       # Total energy per rank (pJ) (Joule)
system.mem_ctrls.dram.rank1.averagePower   671.551521                       # Core power per rank (mW) (Watt)
system.mem_ctrls.dram.rank1.totalIdleTime            0                       # Total Idle time Per DRAM Rank (Tick)
system.mem_ctrls.dram.rank1.pwrStateTime::IDLE   5338854250                       # Time in different power states (Tick)
system.mem_ctrls.dram.rank1.pwrStateTime::REF    442000000                       # Time in different power states (Tick)
system.mem_ctrls.dram.rank1.pwrStateTime::SREF            0                       # Time in different power states (Tick)
system.mem_ctrls.dram.rank1.pwrStateTime::PRE_PDN            0                       # Time in different power states (Tick)
system.mem_ctrls.dram.rank1.pwrStateTime::ACT   7459369250                       # Time in different power states (Tick)
system.mem_ctrls.dram.rank1.pwrStateTime::ACT_PDN            0                       # Time in different power states (Tick)
system.mem_ctrls.power_state.pwrStateResidencyTicks::UNDEFINED  13240223500                       # Cumulative time (in ticks) in various power states (Tick)
system.membus.transDist::ReadResp                 596                       # Transaction distribution (Count)
system.membus.transDist::WritebackDirty        292608                       # Transaction distribution (Count)
system.membus.transDist::CleanEvict               566                       # Transaction distribution (Count)
system.membus.transDist::ReadExReq             325364                       # Transaction distribution (Count)
system.membus.transDist::ReadExResp            325364                       # Transaction distribution (Count)
system.membus.transDist::ReadSharedReq            596                       # Transaction distribution (Count)
system.membus.pktCount_system.l2.mem_side_port::system.mem_ctrls.port       945094                       # Packet count per connected requestor and responder (Count)
system.membus.pktCount::total                  945094                       # Packet count per connected requestor and responder (Count)
system.membus.pktSize_system.l2.mem_side_port::system.mem_ctrls.port     39588352                       # Cumulative packet size per connected requestor and responder (Byte)
system.membus.pktSize::total                 39588352                       # Cumulative packet size per connected requestor and responder (Byte)
system.membus.snoops                                0                       # Total snoops (Count)
system.membus.snoopTraffic                          0                       # Total snoop traffic (Byte)
system.membus.snoopFanout::samples             325960                       # Request fanout histogram (Count)
system.membus.snoopFanout::mean                     0                       # Request fanout histogram (Count)
system.membus.snoopFanout::stdev                    0                       # Request fanout histogram (Count)
system.membus.snoopFanout::underflows               0      0.00%      0.00% # Request fanout histogram (Count)
system.membus.snoopFanout::0                   325960    100.00%    100.00% # Request fanout histogram (Count)
system.membus.snoopFanout::1                        0      0.00%    100.00% # Request fanout histogram (Count)
system.membus.snoopFanout::overflows                0      0.00%    100.00% # Request fanout histogram (Count)
system.membus.snoopFanout::min_value                0                       # Request fanout histogram (Count)
system.membus.snoopFanout::max_value                0                       # Request fanout histogram (Count)
system.membus.snoopFanout::total               325960                       # Request fanout histogram (Count)
system.membus.power_state.pwrStateResidencyTicks::UNDEFINED  13240223500                       # Cumulative time (in ticks) in various power states (Tick)
system.membus.reqLayer0.occupancy          1913832000                       # Layer occupancy (ticks) (Tick)
system.membus.reqLayer0.utilization               0.1                       # Layer utilization (Ratio)
system.membus.respLayer1.occupancy         1674014000                       # Layer occupancy (ticks) (Tick)
system.membus.respLayer1.utilization              0.1                       # Layer utilization (Ratio)
system.membus.snoop_filter.totRequests         619134                       # Total number of requests made to the snoop filter. (Count)
system.membus.snoop_filter.hitSingleRequests       293174                       # Number of requests hitting in the snoop filter with a single holder of the requested data. (Count)
system.membus.snoop_filter.hitMultiRequests            0                       # Number of requests hitting in the snoop filter with multiple (>1) holders of the requested data. (Count)
system.membus.snoop_filter.totSnoops                0                       # Total number of snoops made to the snoop filter. (Count)
system.membus.snoop_filter.hitSingleSnoops            0                       # Number of snoops hitting in the snoop filter with a single holder of the requested data. (Count)
system.membus.snoop_filter.hitMultiSnoops            0                       # Number of snoops hitting in the snoop filter with multiple (>1) holders of the requested data. (Count)
system.tol2bus.transDist::ReadResp              50752                       # Transaction distribution (Count)
system.tol2bus.transDist::WritebackDirty       694913                       # Transaction distribution (Count)
system.tol2bus.transDist::WritebackClean         1004                       # Transaction distribution (Count)
system.tol2bus.transDist::CleanEvict            46080                       # Transaction distribution (Count)
system.tol2bus.transDist::ReadExReq            398087                       # Transaction distribution (Count)
system.tol2bus.transDist::ReadExResp           398085                       # Transaction distribution (Count)
system.tol2bus.transDist::ReadCleanReq           1020                       # Transaction distribution (Count)
system.tol2bus.transDist::ReadSharedReq         49732                       # Transaction distribution (Count)
system.tol2bus.pktCount_system.cpu.icache.mem_side_port::system.l2.cpu_side_port         3044                       # Packet count per connected requestor and responder (Count)
system.tol2bus.pktCount_system.cpu.dcache.mem_side_port::system.l2.cpu_side_port      1343437                       # Packet count per connected requestor and responder (Count)
system.tol2bus.pktCount::total                1346481                       # Packet count per connected requestor and responder (Count)
system.tol2bus.pktSize_system.cpu.icache.mem_side_port::system.l2.cpu_side_port       129536                       # Cumulative packet size per connected requestor and responder (Byte)
system.tol2bus.pktSize_system.cpu.dcache.mem_side_port::system.l2.cpu_side_port     54407680                       # Cumulative packet size per connected requestor and responder (Byte)
system.tol2bus.pktSize::total                54537216                       # Cumulative packet size per connected requestor and responder (Byte)
system.tol2bus.snoops                          293192                       # Total snoops (Count)
system.tol2bus.snoopTraffic                  18727040                       # Total snoop traffic (Byte)
system.tol2bus.snoopFanout::samples            742031                       # Request fanout histogram (Count)
system.tol2bus.snoopFanout::mean             0.004755                       # Request fanout histogram (Count)
system.tol2bus.snoopFanout::stdev            0.068789                       # Request fanout histogram (Count)
system.tol2bus.snoopFanout::underflows              0      0.00%      0.00% # Request fanout histogram (Count)
system.tol2bus.snoopFanout::0                  738503     99.52%     99.52% # Request fanout histogram (Count)
system.tol2bus.snoopFanout::1                    3528      0.48%    100.00% # Request fanout histogram (Count)
system.tol2bus.snoopFanout::2                       0      0.00%    100.00% # Request fanout histogram (Count)
system.tol2bus.snoopFanout::overflows               0      0.00%    100.00% # Request fanout histogram (Count)
system.tol2bus.snoopFanout::min_value               0                       # Request fanout histogram (Count)
system.tol2bus.snoopFanout::max_value               1                       # Request fanout histogram (Count)
system.tol2bus.snoopFanout::total              742031                       # Request fanout histogram (Count)
system.tol2bus.power_state.pwrStateResidencyTicks::UNDEFINED  13240223500                       # Cumulative time (in ticks) in various power states (Tick)
system.tol2bus.reqLayer0.occupancy          852129000                       # Layer occupancy (ticks) (Tick)
system.tol2bus.reqLayer0.utilization              0.1                       # Layer utilization (Ratio)
system.tol2bus.respLayer0.occupancy           1533992                       # Layer occupancy (ticks) (Tick)
system.tol2bus.respLayer0.utilization             0.0                       # Layer utilization (Ratio)
system.tol2bus.respLayer1.occupancy         671731488                       # Layer occupancy (ticks) (Tick)
system.tol2bus.respLayer1.utilization             0.1                       # Layer utilization (Ratio)
system.tol2bus.snoop_filter.totRequests        897644                       # Total number of requests made to the snoop filter. (Count)
system.tol2bus.snoop_filter.hitSingleRequests       448805                       # Number of requests hitting in the snoop filter with a single holder of the requested data. (Count)
system.tol2bus.snoop_filter.hitMultiRequests         3512                       # Number of requests hitting in the snoop filter with multiple (>1) holders of the requested data. (Count)
system.tol2bus.snoop_filter.totSnoops              16                       # Total number of snoops made to the snoop filter. (Count)
system.tol2bus.snoop_filter.hitSingleSnoops           16                       # Number of snoops hitting in the snoop filter with a single holder of the requested data. (Count)
system.tol2bus.snoop_filter.hitMultiSnoops            0                       # Number of snoops hitting in the snoop filter with multiple (>1) holders of the requested data. (Count)
system.voltage_domain.voltage                       1                       # Voltage in Volts (Volt)
system.workload.inst.arm                            0                       # number of arm instructions executed (Count)
system.workload.inst.quiesce                        0                       # number of quiesce instructions executed (Count)

---------- End Simulation Statistics   ----------
