
---------- Begin Simulation Statistics ----------
simSeconds                                   0.615975                       # Number of seconds simulated (Second)
simTicks                                 615974908500                       # Number of ticks simulated (Tick)
finalTick                                615974908500                       # Number of ticks from beginning of simulation (restored from checkpoints and never reset) (Tick)
simFreq                                  1000000000000                       # The number of ticks per simulated second ((Tick/Second))
hostSeconds                                    214.53                       # Real time elapsed on the host (Second)
hostTickRate                               2871208018                       # The number of ticks simulated per host second (ticks/s) ((Tick/Second))
hostMemory                                     673672                       # Number of bytes of host memory used (Byte)
simInsts                                    100000000                       # Number of instructions simulated (Count)
simOps                                      185151634                       # Number of ops (including micro ops) simulated (Count)
hostInstRate                                   466121                       # Simulator instruction rate (inst/s) ((Count/Second))
hostOpRate                                     863029                       # Simulator op (including micro ops) rate (op/s) ((Count/Second))
system.clk_domain.clock                          1000                       # Clock period in ticks (Tick)
system.cpu.numCycles                       1231949817                       # Number of cpu cycles simulated (Cycle)
system.cpu.numWorkItemsStarted                      0                       # Number of work items this cpu started (Count)
system.cpu.numWorkItemsCompleted                    0                       # Number of work items this cpu completed (Count)
system.cpu.branchPred.lookups                10690708                       # Number of BP lookups (Count)
system.cpu.branchPred.condPredicted          10682996                       # Number of conditional branches predicted (Count)
system.cpu.branchPred.condIncorrect              1724                       # Number of conditional branches incorrect (Count)
system.cpu.branchPred.BTBLookups             10683099                       # Number of BTB lookups (Count)
system.cpu.branchPred.BTBHits                10682673                       # Number of BTB hits (Count)
system.cpu.branchPred.BTBMissPct             0.000040                       # BTB Miss Percentage (Ratio)
system.cpu.branchPred.BTBHitRatio            0.999960                       # BTB Hit Ratio (Ratio)
system.cpu.branchPred.RASUsed                    2691                       # Number of times the RAS was used to get a target. (Count)
system.cpu.branchPred.RASIncorrect                 67                       # Number of incorrect RAS predictions. (Count)
system.cpu.branchPred.indirectLookups             284                       # Number of indirect predictor lookups. (Count)
system.cpu.branchPred.indirectHits                163                       # Number of indirect target hits. (Count)
system.cpu.branchPred.indirectMisses              121                       # Number of indirect misses. (Count)
system.cpu.branchPred.indirectMispredicted          136                       # Number of mispredicted indirect branches. (Count)
system.cpu.dcache.demandHits::cpu.data       81960983                       # number of demand (read+write) hits (Count)
system.cpu.dcache.demandHits::total          81960983                       # number of demand (read+write) hits (Count)
system.cpu.dcache.overallHits::cpu.data      81960983                       # number of overall hits (Count)
system.cpu.dcache.overallHits::total         81960983                       # number of overall hits (Count)
system.cpu.dcache.demandMisses::cpu.data      5325369                       # number of demand (read+write) misses (Count)
system.cpu.dcache.demandMisses::total         5325369                       # number of demand (read+write) misses (Count)
system.cpu.dcache.overallMisses::cpu.data      5325369                       # number of overall misses (Count)
system.cpu.dcache.overallMisses::total        5325369                       # number of overall misses (Count)
system.cpu.dcache.demandMissLatency::cpu.data 433922631000                       # number of demand (read+write) miss ticks (Tick)
system.cpu.dcache.demandMissLatency::total 433922631000                       # number of demand (read+write) miss ticks (Tick)
system.cpu.dcache.overallMissLatency::cpu.data 433922631000                       # number of overall miss ticks (Tick)
system.cpu.dcache.overallMissLatency::total 433922631000                       # number of overall miss ticks (Tick)
system.cpu.dcache.demandAccesses::cpu.data     87286352                       # number of demand (read+write) accesses (Count)
system.cpu.dcache.demandAccesses::total      87286352                       # number of demand (read+write) accesses (Count)
system.cpu.dcache.overallAccesses::cpu.data     87286352                       # number of overall (read+write) accesses (Count)
system.cpu.dcache.overallAccesses::total     87286352                       # number of overall (read+write) accesses (Count)
system.cpu.dcache.demandMissRate::cpu.data     0.061010                       # miss rate for demand accesses (Ratio)
system.cpu.dcache.demandMissRate::total      0.061010                       # miss rate for demand accesses (Ratio)
system.cpu.dcache.overallMissRate::cpu.data     0.061010                       # miss rate for overall accesses (Ratio)
system.cpu.dcache.overallMissRate::total     0.061010                       # miss rate for overall accesses (Ratio)
system.cpu.dcache.demandAvgMissLatency::cpu.data 81482.171658                       # average overall miss latency ((Cycle/Count))
system.cpu.dcache.demandAvgMissLatency::total 81482.171658                       # average overall miss latency ((Cycle/Count))
system.cpu.dcache.overallAvgMissLatency::cpu.data 81482.171658                       # average overall miss latency ((Cycle/Count))
system.cpu.dcache.overallAvgMissLatency::total 81482.171658                       # average overall miss latency ((Cycle/Count))
system.cpu.dcache.blockedCycles::no_mshrs            0                       # number of cycles access was blocked (Cycle)
system.cpu.dcache.blockedCycles::no_targets            0                       # number of cycles access was blocked (Cycle)
system.cpu.dcache.blockedCauses::no_mshrs            0                       # number of times access was blocked (Count)
system.cpu.dcache.blockedCauses::no_targets            0                       # number of times access was blocked (Count)
system.cpu.dcache.avgBlocked::no_mshrs            nan                       # average number of cycles each access was blocked ((Cycle/Count))
system.cpu.dcache.avgBlocked::no_targets          nan                       # average number of cycles each access was blocked ((Cycle/Count))
system.cpu.dcache.writebacks::writebacks      5324510                       # number of writebacks (Count)
system.cpu.dcache.writebacks::total           5324510                       # number of writebacks (Count)
system.cpu.dcache.demandMshrMisses::cpu.data      5325369                       # number of demand (read+write) MSHR misses (Count)
system.cpu.dcache.demandMshrMisses::total      5325369                       # number of demand (read+write) MSHR misses (Count)
system.cpu.dcache.overallMshrMisses::cpu.data      5325369                       # number of overall MSHR misses (Count)
system.cpu.dcache.overallMshrMisses::total      5325369                       # number of overall MSHR misses (Count)
system.cpu.dcache.demandMshrMissLatency::cpu.data 428597262000                       # number of demand (read+write) MSHR miss ticks (Tick)
system.cpu.dcache.demandMshrMissLatency::total 428597262000                       # number of demand (read+write) MSHR miss ticks (Tick)
system.cpu.dcache.overallMshrMissLatency::cpu.data 428597262000                       # number of overall MSHR miss ticks (Tick)
system.cpu.dcache.overallMshrMissLatency::total 428597262000                       # number of overall MSHR miss ticks (Tick)
system.cpu.dcache.demandMshrMissRate::cpu.data     0.061010                       # mshr miss ratio for demand accesses (Ratio)
system.cpu.dcache.demandMshrMissRate::total     0.061010                       # mshr miss ratio for demand accesses (Ratio)
system.cpu.dcache.overallMshrMissRate::cpu.data     0.061010                       # mshr miss ratio for overall accesses (Ratio)
system.cpu.dcache.overallMshrMissRate::total     0.061010                       # mshr miss ratio for overall accesses (Ratio)
system.cpu.dcache.demandAvgMshrMissLatency::cpu.data 80482.171658                       # average overall mshr miss latency ((Cycle/Count))
system.cpu.dcache.demandAvgMshrMissLatency::total 80482.171658                       # average overall mshr miss latency ((Cycle/Count))
system.cpu.dcache.overallAvgMshrMissLatency::cpu.data 80482.171658                       # average overall mshr miss latency ((Cycle/Count))
system.cpu.dcache.overallAvgMshrMissLatency::total 80482.171658                       # average overall mshr miss latency ((Cycle/Count))
system.cpu.dcache.replacements                5325241                       # number of replacements (Count)
system.cpu.dcache.LoadLockedReq.hits::cpu.data           34                       # number of LoadLockedReq hits (Count)
system.cpu.dcache.LoadLockedReq.hits::total           34                       # number of LoadLockedReq hits (Count)
system.cpu.dcache.LoadLockedReq.accesses::cpu.data           34                       # number of LoadLockedReq accesses(hits+misses) (Count)
system.cpu.dcache.LoadLockedReq.accesses::total           34                       # number of LoadLockedReq accesses(hits+misses) (Count)
system.cpu.dcache.ReadReq.hits::cpu.data      1971999                       # number of ReadReq hits (Count)
system.cpu.dcache.ReadReq.hits::total         1971999                       # number of ReadReq hits (Count)
system.cpu.dcache.ReadReq.misses::cpu.data          887                       # number of ReadReq misses (Count)
system.cpu.dcache.ReadReq.misses::total           887                       # number of ReadReq misses (Count)
system.cpu.dcache.ReadReq.missLatency::cpu.data     33341500                       # number of ReadReq miss ticks (Tick)
system.cpu.dcache.ReadReq.missLatency::total     33341500                       # number of ReadReq miss ticks (Tick)
system.cpu.dcache.ReadReq.accesses::cpu.data      1972886                       # number of ReadReq accesses(hits+misses) (Count)
system.cpu.dcache.ReadReq.accesses::total      1972886                       # number of ReadReq accesses(hits+misses) (Count)
system.cpu.dcache.ReadReq.missRate::cpu.data     0.000450                       # miss rate for ReadReq accesses (Ratio)
system.cpu.dcache.ReadReq.missRate::total     0.000450                       # miss rate for ReadReq accesses (Ratio)
system.cpu.dcache.ReadReq.avgMissLatency::cpu.data 37589.064262                       # average ReadReq miss latency ((Tick/Count))
system.cpu.dcache.ReadReq.avgMissLatency::total 37589.064262                       # average ReadReq miss latency ((Tick/Count))
system.cpu.dcache.ReadReq.mshrMisses::cpu.data          887                       # number of ReadReq MSHR misses (Count)
system.cpu.dcache.ReadReq.mshrMisses::total          887                       # number of ReadReq MSHR misses (Count)
system.cpu.dcache.ReadReq.mshrMissLatency::cpu.data     32454500                       # number of ReadReq MSHR miss ticks (Tick)
system.cpu.dcache.ReadReq.mshrMissLatency::total     32454500                       # number of ReadReq MSHR miss ticks (Tick)
system.cpu.dcache.ReadReq.mshrMissRate::cpu.data     0.000450                       # mshr miss rate for ReadReq accesses (Ratio)
system.cpu.dcache.ReadReq.mshrMissRate::total     0.000450                       # mshr miss rate for ReadReq accesses (Ratio)
system.cpu.dcache.ReadReq.avgMshrMissLatency::cpu.data 36589.064262                       # average ReadReq mshr miss latency ((Tick/Count))
system.cpu.dcache.ReadReq.avgMshrMissLatency::total 36589.064262                       # average ReadReq mshr miss latency ((Tick/Count))
system.cpu.dcache.StoreCondReq.hits::cpu.data           34                       # number of StoreCondReq hits (Count)
system.cpu.dcache.StoreCondReq.hits::total           34                       # number of StoreCondReq hits (Count)
system.cpu.dcache.StoreCondReq.accesses::cpu.data           34                       # number of StoreCondReq accesses(hits+misses) (Count)
system.cpu.dcache.StoreCondReq.accesses::total           34                       # number of StoreCondReq accesses(hits+misses) (Count)
system.cpu.dcache.WriteReq.hits::cpu.data     79988984                       # number of WriteReq hits (Count)
system.cpu.dcache.WriteReq.hits::total       79988984                       # number of WriteReq hits (Count)
system.cpu.dcache.WriteReq.misses::cpu.data      5324482                       # number of WriteReq misses (Count)
system.cpu.dcache.WriteReq.misses::total      5324482                       # number of WriteReq misses (Count)
system.cpu.dcache.WriteReq.missLatency::cpu.data 433889289500                       # number of WriteReq miss ticks (Tick)
system.cpu.dcache.WriteReq.missLatency::total 433889289500                       # number of WriteReq miss ticks (Tick)
system.cpu.dcache.WriteReq.accesses::cpu.data     85313466                       # number of WriteReq accesses(hits+misses) (Count)
system.cpu.dcache.WriteReq.accesses::total     85313466                       # number of WriteReq accesses(hits+misses) (Count)
system.cpu.dcache.WriteReq.missRate::cpu.data     0.062411                       # miss rate for WriteReq accesses (Ratio)
system.cpu.dcache.WriteReq.missRate::total     0.062411                       # miss rate for WriteReq accesses (Ratio)
system.cpu.dcache.WriteReq.avgMissLatency::cpu.data 81489.483766                       # average WriteReq miss latency ((Tick/Count))
system.cpu.dcache.WriteReq.avgMissLatency::total 81489.483766                       # average WriteReq miss latency ((Tick/Count))
system.cpu.dcache.WriteReq.mshrMisses::cpu.data      5324482                       # number of WriteReq MSHR misses (Count)
system.cpu.dcache.WriteReq.mshrMisses::total      5324482                       # number of WriteReq MSHR misses (Count)
system.cpu.dcache.WriteReq.mshrMissLatency::cpu.data 428564807500                       # number of WriteReq MSHR miss ticks (Tick)
system.cpu.dcache.WriteReq.mshrMissLatency::total 428564807500                       # number of WriteReq MSHR miss ticks (Tick)
system.cpu.dcache.WriteReq.mshrMissRate::cpu.data     0.062411                       # mshr miss rate for WriteReq accesses (Ratio)
system.cpu.dcache.WriteReq.mshrMissRate::total     0.062411                       # mshr miss rate for WriteReq accesses (Ratio)
system.cpu.dcache.WriteReq.avgMshrMissLatency::cpu.data 80489.483766                       # average WriteReq mshr miss latency ((Tick/Count))
system.cpu.dcache.WriteReq.avgMshrMissLatency::total 80489.483766                       # average WriteReq mshr miss latency ((Tick/Count))
system.cpu.dcache.power_state.pwrStateResidencyTicks::UNDEFINED 615974908500                       # Cumulative time (in ticks) in various power states (Tick)
system.cpu.dcache.tags.tagsInUse           127.994509                       # Average ticks per tags in use ((Tick/Count))
system.cpu.dcache.tags.totalRefs             87286420                       # Total number of references to valid blocks. (Count)
system.cpu.dcache.tags.sampledRefs            5325369                       # Sample count of references to valid blocks. (Count)
system.cpu.dcache.tags.avgRefs              16.390680                       # Average number of references to valid blocks. ((Count/Count))
system.cpu.dcache.tags.warmupTick              189500                       # The tick when the warmup percentage was hit. (Tick)
system.cpu.dcache.tags.occupancies::cpu.data   127.994509                       # Average occupied blocks per tick, per requestor ((Count/Tick))
system.cpu.dcache.tags.avgOccs::cpu.data     0.999957                       # Average percentage of cache occupancy ((Ratio/Tick))
system.cpu.dcache.tags.avgOccs::total        0.999957                       # Average percentage of cache occupancy ((Ratio/Tick))
system.cpu.dcache.tags.occupanciesTaskId::1024          128                       # Occupied blocks per task id (Count)
system.cpu.dcache.tags.ageTaskId_1024::0           87                       # Occupied blocks per task id, per block age (Count)
system.cpu.dcache.tags.ageTaskId_1024::1           41                       # Occupied blocks per task id, per block age (Count)
system.cpu.dcache.tags.ratioOccsTaskId::1024            1                       # Ratio of occupied blocks and all blocks, per task id (Ratio)
system.cpu.dcache.tags.tagAccesses          179898209                       # Number of tag accesses (Count)
system.cpu.dcache.tags.dataAccesses         179898209                       # Number of data accesses (Count)
system.cpu.dcache.tags.power_state.pwrStateResidencyTicks::UNDEFINED 615974908500                       # Cumulative time (in ticks) in various power states (Tick)
system.cpu.exec_context.thread_0.numInsts    100000000                       # Number of instructions committed (Count)
system.cpu.exec_context.thread_0.numOps     185151634                       # Number of ops (including micro ops) committed (Count)
system.cpu.exec_context.thread_0.numIntAluAccesses    174511125                       # Number of integer alu accesses (Count)
system.cpu.exec_context.thread_0.numFpAluAccesses            0                       # Number of float alu accesses (Count)
system.cpu.exec_context.thread_0.numVecAluAccesses            0                       # Number of vector alu accesses (Count)
system.cpu.exec_context.thread_0.numCallsReturns         5424                       # Number of times a function call or return occured (Count)
system.cpu.exec_context.thread_0.numCondCtrlInsts     10682996                       # Number of instructions that are conditional controls (Count)
system.cpu.exec_context.thread_0.numIntInsts    174511125                       # Number of integer instructions (Count)
system.cpu.exec_context.thread_0.numFpInsts            0                       # Number of float instructions (Count)
system.cpu.exec_context.thread_0.numVecInsts            0                       # Number of vector instructions (Count)
system.cpu.exec_context.thread_0.numIntRegReads    347966442                       # Number of times the integer registers were read (Count)
system.cpu.exec_context.thread_0.numIntRegWrites     88709909                       # Number of times the integer registers were written (Count)
system.cpu.exec_context.thread_0.numFpRegReads            0                       # Number of times the floating registers were read (Count)
system.cpu.exec_context.thread_0.numFpRegWrites            0                       # Number of times the floating registers were written (Count)
system.cpu.exec_context.thread_0.numVecRegReads           16                       # Number of times the vector registers were read (Count)
system.cpu.exec_context.thread_0.numVecRegWrites            0                       # Number of times the vector registers were written (Count)
system.cpu.exec_context.thread_0.numVecPredRegReads            0                       # Number of times the predicate registers were read (Count)
system.cpu.exec_context.thread_0.numVecPredRegWrites            0                       # Number of times the predicate registers were written (Count)
system.cpu.exec_context.thread_0.numCCRegReads    561507276                       # Number of times the CC registers were read (Count)
system.cpu.exec_context.thread_0.numCCRegWrites    128491689                       # Number of times the CC registers were written (Count)
system.cpu.exec_context.thread_0.numMemRefs     87330905                       # Number of memory refs (Count)
system.cpu.exec_context.thread_0.numLoadInsts      1973024                       # Number of load instructions (Count)
system.cpu.exec_context.thread_0.numStoreInsts     85357881                       # Number of store instructions (Count)
system.cpu.exec_context.thread_0.numIdleCycles            0                       # Number of idle cycles (Cycle)
system.cpu.exec_context.thread_0.numBusyCycles   1231949817                       # Number of busy cycles (Cycle)
system.cpu.exec_context.thread_0.notIdleFraction            1                       # Percentage of non-idle cycles (Ratio)
system.cpu.exec_context.thread_0.idleFraction            0                       # Percentage of idle cycles (Ratio)
system.cpu.exec_context.thread_0.numBranches     10690708                       # Number of branches fetched (Count)
system.cpu.exec_context.thread_0.numPredictedBranches     10685527                       # Number of branches predicted as taken (Count)
system.cpu.exec_context.thread_0.numBranchMispred         1724                       # Number of branch mispredictions (Count)
system.cpu.exec_context.thread_0.branchMispredRatio     0.000161                       # Branch misprediction ratio (Ratio)
system.cpu.exec_context.thread_0.statExecutedInstType::No_OpClass            0      0.00%      0.00% # Class of executed instruction. (Count)
system.cpu.exec_context.thread_0.statExecutedInstType::IntAlu     97865199     52.84%     52.84% # Class of executed instruction. (Count)
system.cpu.exec_context.thread_0.statExecutedInstType::IntMult           79      0.00%     52.84% # Class of executed instruction. (Count)
system.cpu.exec_context.thread_0.statExecutedInstType::IntDiv            0      0.00%     52.84% # Class of executed instruction. (Count)
system.cpu.exec_context.thread_0.statExecutedInstType::FloatAdd            0      0.00%     52.84% # Class of executed instruction. (Count)
system.cpu.exec_context.thread_0.statExecutedInstType::FloatCmp            0      0.00%     52.84% # Class of executed instruction. (Count)
system.cpu.exec_context.thread_0.statExecutedInstType::FloatCvt            0      0.00%     52.84% # Class of executed instruction. (Count)
system.cpu.exec_context.thread_0.statExecutedInstType::FloatMult            0      0.00%     52.84% # Class of executed instruction. (Count)
system.cpu.exec_context.thread_0.statExecutedInstType::FloatMultAcc            0      0.00%     52.84% # Class of executed instruction. (Count)
system.cpu.exec_context.thread_0.statExecutedInstType::FloatDiv            0      0.00%     52.84% # Class of executed instruction. (Count)
system.cpu.exec_context.thread_0.statExecutedInstType::FloatMisc            0      0.00%     52.84% # Class of executed instruction. (Count)
system.cpu.exec_context.thread_0.statExecutedInstType::FloatSqrt            0      0.00%     52.84% # Class of executed instruction. (Count)
system.cpu.exec_context.thread_0.statExecutedInstType::SimdAdd            0      0.00%     52.84% # Class of executed instruction. (Count)
system.cpu.exec_context.thread_0.statExecutedInstType::SimdAddAcc            0      0.00%     52.84% # Class of executed instruction. (Count)
system.cpu.exec_context.thread_0.statExecutedInstType::SimdAlu            0      0.00%     52.84% # Class of executed instruction. (Count)
system.cpu.exec_context.thread_0.statExecutedInstType::SimdCmp            0      0.00%     52.84% # Class of executed instruction. (Count)
system.cpu.exec_context.thread_0.statExecutedInstType::SimdCvt            0      0.00%     52.84% # Class of executed instruction. (Count)
system.cpu.exec_context.thread_0.statExecutedInstType::SimdMisc            0      0.00%     52.84% # Class of executed instruction. (Count)
system.cpu.exec_context.thread_0.statExecutedInstType::SimdMult            0      0.00%     52.84% # Class of executed instruction. (Count)
system.cpu.exec_context.thread_0.statExecutedInstType::SimdMultAcc            0      0.00%     52.84% # Class of executed instruction. (Count)
system.cpu.exec_context.thread_0.statExecutedInstType::SimdShift            0      0.00%     52.84% # Class of executed instruction. (Count)
system.cpu.exec_context.thread_0.statExecutedInstType::SimdShiftAcc            0      0.00%     52.84% # Class of executed instruction. (Count)
system.cpu.exec_context.thread_0.statExecutedInstType::SimdDiv            0      0.00%     52.84% # Class of executed instruction. (Count)
system.cpu.exec_context.thread_0.statExecutedInstType::SimdSqrt            0      0.00%     52.84% # Class of executed instruction. (Count)
system.cpu.exec_context.thread_0.statExecutedInstType::SimdFloatAdd            0      0.00%     52.84% # Class of executed instruction. (Count)
system.cpu.exec_context.thread_0.statExecutedInstType::SimdFloatAlu            0      0.00%     52.84% # Class of executed instruction. (Count)
system.cpu.exec_context.thread_0.statExecutedInstType::SimdFloatCmp            0      0.00%     52.84% # Class of executed instruction. (Count)
system.cpu.exec_context.thread_0.statExecutedInstType::SimdFloatCvt            0      0.00%     52.84% # Class of executed instruction. (Count)
system.cpu.exec_context.thread_0.statExecutedInstType::SimdFloatDiv            0      0.00%     52.84% # Class of executed instruction. (Count)
system.cpu.exec_context.thread_0.statExecutedInstType::SimdFloatMisc            0      0.00%     52.84% # Class of executed instruction. (Count)
system.cpu.exec_context.thread_0.statExecutedInstType::SimdFloatMult            0      0.00%     52.84% # Class of executed instruction. (Count)
system.cpu.exec_context.thread_0.statExecutedInstType::SimdFloatMultAcc            0      0.00%     52.84% # Class of executed instruction. (Count)
system.cpu.exec_context.thread_0.statExecutedInstType::SimdFloatSqrt            0      0.00%     52.84% # Class of executed instruction. (Count)
system.cpu.exec_context.thread_0.statExecutedInstType::SimdReduceAdd            0      0.00%     52.84% # Class of executed instruction. (Count)
system.cpu.exec_context.thread_0.statExecutedInstType::SimdReduceAlu            0      0.00%     52.84% # Class of executed instruction. (Count)
system.cpu.exec_context.thread_0.statExecutedInstType::SimdReduceCmp            0      0.00%     52.84% # Class of executed instruction. (Count)
system.cpu.exec_context.thread_0.statExecutedInstType::SimdFloatReduceAdd            0      0.00%     52.84% # Class of executed instruction. (Count)
system.cpu.exec_context.thread_0.statExecutedInstType::SimdFloatReduceCmp            0      0.00%     52.84% # Class of executed instruction. (Count)
system.cpu.exec_context.thread_0.statExecutedInstType::SimdAes            0      0.00%     52.84% # Class of executed instruction. (Count)
system.cpu.exec_context.thread_0.statExecutedInstType::SimdAesMix            0      0.00%     52.84% # Class of executed instruction. (Count)
system.cpu.exec_context.thread_0.statExecutedInstType::SimdSha1Hash            0      0.00%     52.84% # Class of executed instruction. (Count)
system.cpu.exec_context.thread_0.statExecutedInstType::SimdSha1Hash2            0      0.00%     52.84% # Class of executed instruction. (Count)
system.cpu.exec_context.thread_0.statExecutedInstType::SimdSha256Hash            0      0.00%     52.84% # Class of executed instruction. (Count)
system.cpu.exec_context.thread_0.statExecutedInstType::SimdSha256Hash2            0      0.00%     52.84% # Class of executed instruction. (Count)
system.cpu.exec_context.thread_0.statExecutedInstType::SimdShaSigma2            0      0.00%     52.84% # Class of executed instruction. (Count)
system.cpu.exec_context.thread_0.statExecutedInstType::SimdShaSigma3            0      0.00%     52.84% # Class of executed instruction. (Count)
system.cpu.exec_context.thread_0.statExecutedInstType::SimdPredAlu            0      0.00%     52.84% # Class of executed instruction. (Count)
system.cpu.exec_context.thread_0.statExecutedInstType::MemRead      1973024      1.07%     53.91% # Class of executed instruction. (Count)
system.cpu.exec_context.thread_0.statExecutedInstType::MemWrite     85357881     46.09%    100.00% # Class of executed instruction. (Count)
system.cpu.exec_context.thread_0.statExecutedInstType::FloatMemRead            0      0.00%    100.00% # Class of executed instruction. (Count)
system.cpu.exec_context.thread_0.statExecutedInstType::FloatMemWrite            0      0.00%    100.00% # Class of executed instruction. (Count)
system.cpu.exec_context.thread_0.statExecutedInstType::IprAccess            0      0.00%    100.00% # Class of executed instruction. (Count)
system.cpu.exec_context.thread_0.statExecutedInstType::InstPrefetch            0      0.00%    100.00% # Class of executed instruction. (Count)
system.cpu.exec_context.thread_0.statExecutedInstType::total    185196183                       # Class of executed instruction. (Count)
system.cpu.icache.demandHits::cpu.inst      100043459                       # number of demand (read+write) hits (Count)
system.cpu.icache.demandHits::total         100043459                       # number of demand (read+write) hits (Count)
system.cpu.icache.overallHits::cpu.inst     100043459                       # number of overall hits (Count)
system.cpu.icache.overallHits::total        100043459                       # number of overall hits (Count)
system.cpu.icache.demandMisses::cpu.inst          745                       # number of demand (read+write) misses (Count)
system.cpu.icache.demandMisses::total             745                       # number of demand (read+write) misses (Count)
system.cpu.icache.overallMisses::cpu.inst          745                       # number of overall misses (Count)
system.cpu.icache.overallMisses::total            745                       # number of overall misses (Count)
system.cpu.icache.demandMissLatency::cpu.inst     47791000                       # number of demand (read+write) miss ticks (Tick)
system.cpu.icache.demandMissLatency::total     47791000                       # number of demand (read+write) miss ticks (Tick)
system.cpu.icache.overallMissLatency::cpu.inst     47791000                       # number of overall miss ticks (Tick)
system.cpu.icache.overallMissLatency::total     47791000                       # number of overall miss ticks (Tick)
system.cpu.icache.demandAccesses::cpu.inst    100044204                       # number of demand (read+write) accesses (Count)
system.cpu.icache.demandAccesses::total     100044204                       # number of demand (read+write) accesses (Count)
system.cpu.icache.overallAccesses::cpu.inst    100044204                       # number of overall (read+write) accesses (Count)
system.cpu.icache.overallAccesses::total    100044204                       # number of overall (read+write) accesses (Count)
system.cpu.icache.demandMissRate::cpu.inst     0.000007                       # miss rate for demand accesses (Ratio)
system.cpu.icache.demandMissRate::total      0.000007                       # miss rate for demand accesses (Ratio)
system.cpu.icache.overallMissRate::cpu.inst     0.000007                       # miss rate for overall accesses (Ratio)
system.cpu.icache.overallMissRate::total     0.000007                       # miss rate for overall accesses (Ratio)
system.cpu.icache.demandAvgMissLatency::cpu.inst 64148.993289                       # average overall miss latency ((Cycle/Count))
system.cpu.icache.demandAvgMissLatency::total 64148.993289                       # average overall miss latency ((Cycle/Count))
system.cpu.icache.overallAvgMissLatency::cpu.inst 64148.993289                       # average overall miss latency ((Cycle/Count))
system.cpu.icache.overallAvgMissLatency::total 64148.993289                       # average overall miss latency ((Cycle/Count))
system.cpu.icache.blockedCycles::no_mshrs            0                       # number of cycles access was blocked (Cycle)
system.cpu.icache.blockedCycles::no_targets            0                       # number of cycles access was blocked (Cycle)
system.cpu.icache.blockedCauses::no_mshrs            0                       # number of times access was blocked (Count)
system.cpu.icache.blockedCauses::no_targets            0                       # number of times access was blocked (Count)
system.cpu.icache.avgBlocked::no_mshrs            nan                       # average number of cycles each access was blocked ((Cycle/Count))
system.cpu.icache.avgBlocked::no_targets          nan                       # average number of cycles each access was blocked ((Cycle/Count))
system.cpu.icache.writebacks::writebacks          617                       # number of writebacks (Count)
system.cpu.icache.writebacks::total               617                       # number of writebacks (Count)
system.cpu.icache.demandMshrMisses::cpu.inst          745                       # number of demand (read+write) MSHR misses (Count)
system.cpu.icache.demandMshrMisses::total          745                       # number of demand (read+write) MSHR misses (Count)
system.cpu.icache.overallMshrMisses::cpu.inst          745                       # number of overall MSHR misses (Count)
system.cpu.icache.overallMshrMisses::total          745                       # number of overall MSHR misses (Count)
system.cpu.icache.demandMshrMissLatency::cpu.inst     47046000                       # number of demand (read+write) MSHR miss ticks (Tick)
system.cpu.icache.demandMshrMissLatency::total     47046000                       # number of demand (read+write) MSHR miss ticks (Tick)
system.cpu.icache.overallMshrMissLatency::cpu.inst     47046000                       # number of overall MSHR miss ticks (Tick)
system.cpu.icache.overallMshrMissLatency::total     47046000                       # number of overall MSHR miss ticks (Tick)
system.cpu.icache.demandMshrMissRate::cpu.inst     0.000007                       # mshr miss ratio for demand accesses (Ratio)
system.cpu.icache.demandMshrMissRate::total     0.000007                       # mshr miss ratio for demand accesses (Ratio)
system.cpu.icache.overallMshrMissRate::cpu.inst     0.000007                       # mshr miss ratio for overall accesses (Ratio)
system.cpu.icache.overallMshrMissRate::total     0.000007                       # mshr miss ratio for overall accesses (Ratio)
system.cpu.icache.demandAvgMshrMissLatency::cpu.inst 63148.993289                       # average overall mshr miss latency ((Cycle/Count))
system.cpu.icache.demandAvgMshrMissLatency::total 63148.993289                       # average overall mshr miss latency ((Cycle/Count))
system.cpu.icache.overallAvgMshrMissLatency::cpu.inst 63148.993289                       # average overall mshr miss latency ((Cycle/Count))
system.cpu.icache.overallAvgMshrMissLatency::total 63148.993289                       # average overall mshr miss latency ((Cycle/Count))
system.cpu.icache.replacements                    617                       # number of replacements (Count)
system.cpu.icache.ReadReq.hits::cpu.inst    100043459                       # number of ReadReq hits (Count)
system.cpu.icache.ReadReq.hits::total       100043459                       # number of ReadReq hits (Count)
system.cpu.icache.ReadReq.misses::cpu.inst          745                       # number of ReadReq misses (Count)
system.cpu.icache.ReadReq.misses::total           745                       # number of ReadReq misses (Count)
system.cpu.icache.ReadReq.missLatency::cpu.inst     47791000                       # number of ReadReq miss ticks (Tick)
system.cpu.icache.ReadReq.missLatency::total     47791000                       # number of ReadReq miss ticks (Tick)
system.cpu.icache.ReadReq.accesses::cpu.inst    100044204                       # number of ReadReq accesses(hits+misses) (Count)
system.cpu.icache.ReadReq.accesses::total    100044204                       # number of ReadReq accesses(hits+misses) (Count)
system.cpu.icache.ReadReq.missRate::cpu.inst     0.000007                       # miss rate for ReadReq accesses (Ratio)
system.cpu.icache.ReadReq.missRate::total     0.000007                       # miss rate for ReadReq accesses (Ratio)
system.cpu.icache.ReadReq.avgMissLatency::cpu.inst 64148.993289                       # average ReadReq miss latency ((Tick/Count))
system.cpu.icache.ReadReq.avgMissLatency::total 64148.993289                       # average ReadReq miss latency ((Tick/Count))
system.cpu.icache.ReadReq.mshrMisses::cpu.inst          745                       # number of ReadReq MSHR misses (Count)
system.cpu.icache.ReadReq.mshrMisses::total          745                       # number of ReadReq MSHR misses (Count)
system.cpu.icache.ReadReq.mshrMissLatency::cpu.inst     47046000                       # number of ReadReq MSHR miss ticks (Tick)
system.cpu.icache.ReadReq.mshrMissLatency::total     47046000                       # number of ReadReq MSHR miss ticks (Tick)
system.cpu.icache.ReadReq.mshrMissRate::cpu.inst     0.000007                       # mshr miss rate for ReadReq accesses (Ratio)
system.cpu.icache.ReadReq.mshrMissRate::total     0.000007                       # mshr miss rate for ReadReq accesses (Ratio)
system.cpu.icache.ReadReq.avgMshrMissLatency::cpu.inst 63148.993289                       # average ReadReq mshr miss latency ((Tick/Count))
system.cpu.icache.ReadReq.avgMshrMissLatency::total 63148.993289                       # average ReadReq mshr miss latency ((Tick/Count))
system.cpu.icache.power_state.pwrStateResidencyTicks::UNDEFINED 615974908500                       # Cumulative time (in ticks) in various power states (Tick)
system.cpu.icache.tags.tagsInUse           127.432989                       # Average ticks per tags in use ((Tick/Count))
system.cpu.icache.tags.totalRefs            100044204                       # Total number of references to valid blocks. (Count)
system.cpu.icache.tags.sampledRefs                745                       # Sample count of references to valid blocks. (Count)
system.cpu.icache.tags.avgRefs           134287.522148                       # Average number of references to valid blocks. ((Count/Count))
system.cpu.icache.tags.warmupTick               87500                       # The tick when the warmup percentage was hit. (Tick)
system.cpu.icache.tags.occupancies::cpu.inst   127.432989                       # Average occupied blocks per tick, per requestor ((Count/Tick))
system.cpu.icache.tags.avgOccs::cpu.inst     0.995570                       # Average percentage of cache occupancy ((Ratio/Tick))
system.cpu.icache.tags.avgOccs::total        0.995570                       # Average percentage of cache occupancy ((Ratio/Tick))
system.cpu.icache.tags.occupanciesTaskId::1024          128                       # Occupied blocks per task id (Count)
system.cpu.icache.tags.ageTaskId_1024::4          128                       # Occupied blocks per task id, per block age (Count)
system.cpu.icache.tags.ratioOccsTaskId::1024            1                       # Ratio of occupied blocks and all blocks, per task id (Ratio)
system.cpu.icache.tags.tagAccesses          200089153                       # Number of tag accesses (Count)
system.cpu.icache.tags.dataAccesses         200089153                       # Number of data accesses (Count)
system.cpu.icache.tags.power_state.pwrStateResidencyTicks::UNDEFINED 615974908500                       # Cumulative time (in ticks) in various power states (Tick)
system.cpu.mmu.dtb.instHits                         0                       # ITB inst hits (Count)
system.cpu.mmu.dtb.instMisses                       0                       # ITB inst misses (Count)
system.cpu.mmu.dtb.readHits                         0                       # DTB read hits (Count)
system.cpu.mmu.dtb.readMisses                       0                       # DTB read misses (Count)
system.cpu.mmu.dtb.writeHits                        0                       # DTB write hits (Count)
system.cpu.mmu.dtb.writeMisses                      0                       # DTB write misses (Count)
system.cpu.mmu.dtb.inserts                          0                       # Number of times an entry is inserted into the TLB (Count)
system.cpu.mmu.dtb.flushTlb                         0                       # Number of times complete TLB was flushed (Count)
system.cpu.mmu.dtb.flushTlbMva                      0                       # Number of times TLB was flushed by MVA (Count)
system.cpu.mmu.dtb.flushTlbMvaAsid                  0                       # Number of times TLB was flushed by MVA & ASID (Count)
system.cpu.mmu.dtb.flushTlbAsid                     0                       # Number of times TLB was flushed by ASID (Count)
system.cpu.mmu.dtb.flushedEntries                   0                       # Number of entries that have been flushed from TLB (Count)
system.cpu.mmu.dtb.alignFaults                      0                       # Number of TLB faults due to alignment restrictions (Count)
system.cpu.mmu.dtb.prefetchFaults                   0                       # Number of TLB faults due to prefetch (Count)
system.cpu.mmu.dtb.domainFaults                     0                       # Number of TLB faults due to domain restrictions (Count)
system.cpu.mmu.dtb.permsFaults                      0                       # Number of TLB faults due to permissions restrictions (Count)
system.cpu.mmu.dtb.readAccesses                     0                       # DTB read accesses (Count)
system.cpu.mmu.dtb.writeAccesses                    0                       # DTB write accesses (Count)
system.cpu.mmu.dtb.instAccesses                     0                       # ITB inst accesses (Count)
system.cpu.mmu.dtb.hits                             0                       # Total TLB (inst and data) hits (Count)
system.cpu.mmu.dtb.misses                           0                       # Total TLB (inst and data) misses (Count)
system.cpu.mmu.dtb.accesses                         0                       # Total TLB (inst and data) accesses (Count)
system.cpu.mmu.dtb_walker.walks                     0                       # Table walker walks requested (Count)
system.cpu.mmu.dtb_walker.requestOrigin_Requested::Data            0                       # Table walker requests started/completed, data/inst (Count)
system.cpu.mmu.dtb_walker.requestOrigin_Requested::Inst            0                       # Table walker requests started/completed, data/inst (Count)
system.cpu.mmu.dtb_walker.requestOrigin_Requested::total            0                       # Table walker requests started/completed, data/inst (Count)
system.cpu.mmu.dtb_walker.requestOrigin_Completed::Data            0                       # Table walker requests started/completed, data/inst (Count)
system.cpu.mmu.dtb_walker.requestOrigin_Completed::Inst            0                       # Table walker requests started/completed, data/inst (Count)
system.cpu.mmu.dtb_walker.requestOrigin_Completed::total            0                       # Table walker requests started/completed, data/inst (Count)
system.cpu.mmu.dtb_walker.requestOrigin::total            0                       # Table walker requests started/completed, data/inst (Count)
system.cpu.mmu.dtb_walker.power_state.pwrStateResidencyTicks::UNDEFINED 615974908500                       # Cumulative time (in ticks) in various power states (Tick)
system.cpu.mmu.itb.instHits                         0                       # ITB inst hits (Count)
system.cpu.mmu.itb.instMisses                       0                       # ITB inst misses (Count)
system.cpu.mmu.itb.readHits                         0                       # DTB read hits (Count)
system.cpu.mmu.itb.readMisses                       0                       # DTB read misses (Count)
system.cpu.mmu.itb.writeHits                        0                       # DTB write hits (Count)
system.cpu.mmu.itb.writeMisses                      0                       # DTB write misses (Count)
system.cpu.mmu.itb.inserts                          0                       # Number of times an entry is inserted into the TLB (Count)
system.cpu.mmu.itb.flushTlb                         0                       # Number of times complete TLB was flushed (Count)
system.cpu.mmu.itb.flushTlbMva                      0                       # Number of times TLB was flushed by MVA (Count)
system.cpu.mmu.itb.flushTlbMvaAsid                  0                       # Number of times TLB was flushed by MVA & ASID (Count)
system.cpu.mmu.itb.flushTlbAsid                     0                       # Number of times TLB was flushed by ASID (Count)
system.cpu.mmu.itb.flushedEntries                   0                       # Number of entries that have been flushed from TLB (Count)
system.cpu.mmu.itb.alignFaults                      0                       # Number of TLB faults due to alignment restrictions (Count)
system.cpu.mmu.itb.prefetchFaults                   0                       # Number of TLB faults due to prefetch (Count)
system.cpu.mmu.itb.domainFaults                     0                       # Number of TLB faults due to domain restrictions (Count)
system.cpu.mmu.itb.permsFaults                      0                       # Number of TLB faults due to permissions restrictions (Count)
system.cpu.mmu.itb.readAccesses                     0                       # DTB read accesses (Count)
system.cpu.mmu.itb.writeAccesses                    0                       # DTB write accesses (Count)
system.cpu.mmu.itb.instAccesses                     0                       # ITB inst accesses (Count)
system.cpu.mmu.itb.hits                             0                       # Total TLB (inst and data) hits (Count)
system.cpu.mmu.itb.misses                           0                       # Total TLB (inst and data) misses (Count)
system.cpu.mmu.itb.accesses                         0                       # Total TLB (inst and data) accesses (Count)
system.cpu.mmu.itb_walker.walks                     0                       # Table walker walks requested (Count)
system.cpu.mmu.itb_walker.requestOrigin_Requested::Data            0                       # Table walker requests started/completed, data/inst (Count)
system.cpu.mmu.itb_walker.requestOrigin_Requested::Inst            0                       # Table walker requests started/completed, data/inst (Count)
system.cpu.mmu.itb_walker.requestOrigin_Requested::total            0                       # Table walker requests started/completed, data/inst (Count)
system.cpu.mmu.itb_walker.requestOrigin_Completed::Data            0                       # Table walker requests started/completed, data/inst (Count)
system.cpu.mmu.itb_walker.requestOrigin_Completed::Inst            0                       # Table walker requests started/completed, data/inst (Count)
system.cpu.mmu.itb_walker.requestOrigin_Completed::total            0                       # Table walker requests started/completed, data/inst (Count)
system.cpu.mmu.itb_walker.requestOrigin::total            0                       # Table walker requests started/completed, data/inst (Count)
system.cpu.mmu.itb_walker.power_state.pwrStateResidencyTicks::UNDEFINED 615974908500                       # Cumulative time (in ticks) in various power states (Tick)
system.cpu.mmu.stage2_dtb.instHits                  0                       # ITB inst hits (Count)
system.cpu.mmu.stage2_dtb.instMisses                0                       # ITB inst misses (Count)
system.cpu.mmu.stage2_dtb.readHits                  0                       # DTB read hits (Count)
system.cpu.mmu.stage2_dtb.readMisses                0                       # DTB read misses (Count)
system.cpu.mmu.stage2_dtb.writeHits                 0                       # DTB write hits (Count)
system.cpu.mmu.stage2_dtb.writeMisses               0                       # DTB write misses (Count)
system.cpu.mmu.stage2_dtb.inserts                   0                       # Number of times an entry is inserted into the TLB (Count)
system.cpu.mmu.stage2_dtb.flushTlb                  0                       # Number of times complete TLB was flushed (Count)
system.cpu.mmu.stage2_dtb.flushTlbMva               0                       # Number of times TLB was flushed by MVA (Count)
system.cpu.mmu.stage2_dtb.flushTlbMvaAsid            0                       # Number of times TLB was flushed by MVA & ASID (Count)
system.cpu.mmu.stage2_dtb.flushTlbAsid              0                       # Number of times TLB was flushed by ASID (Count)
system.cpu.mmu.stage2_dtb.flushedEntries            0                       # Number of entries that have been flushed from TLB (Count)
system.cpu.mmu.stage2_dtb.alignFaults               0                       # Number of TLB faults due to alignment restrictions (Count)
system.cpu.mmu.stage2_dtb.prefetchFaults            0                       # Number of TLB faults due to prefetch (Count)
system.cpu.mmu.stage2_dtb.domainFaults              0                       # Number of TLB faults due to domain restrictions (Count)
system.cpu.mmu.stage2_dtb.permsFaults               0                       # Number of TLB faults due to permissions restrictions (Count)
system.cpu.mmu.stage2_dtb.readAccesses              0                       # DTB read accesses (Count)
system.cpu.mmu.stage2_dtb.writeAccesses             0                       # DTB write accesses (Count)
system.cpu.mmu.stage2_dtb.instAccesses              0                       # ITB inst accesses (Count)
system.cpu.mmu.stage2_dtb.hits                      0                       # Total TLB (inst and data) hits (Count)
system.cpu.mmu.stage2_dtb.misses                    0                       # Total TLB (inst and data) misses (Count)
system.cpu.mmu.stage2_dtb.accesses                  0                       # Total TLB (inst and data) accesses (Count)
system.cpu.mmu.stage2_dtb_walker.walks              0                       # Table walker walks requested (Count)
system.cpu.mmu.stage2_dtb_walker.requestOrigin_Requested::Data            0                       # Table walker requests started/completed, data/inst (Count)
system.cpu.mmu.stage2_dtb_walker.requestOrigin_Requested::Inst            0                       # Table walker requests started/completed, data/inst (Count)
system.cpu.mmu.stage2_dtb_walker.requestOrigin_Requested::total            0                       # Table walker requests started/completed, data/inst (Count)
system.cpu.mmu.stage2_dtb_walker.requestOrigin_Completed::Data            0                       # Table walker requests started/completed, data/inst (Count)
system.cpu.mmu.stage2_dtb_walker.requestOrigin_Completed::Inst            0                       # Table walker requests started/completed, data/inst (Count)
system.cpu.mmu.stage2_dtb_walker.requestOrigin_Completed::total            0                       # Table walker requests started/completed, data/inst (Count)
system.cpu.mmu.stage2_dtb_walker.requestOrigin::total            0                       # Table walker requests started/completed, data/inst (Count)
system.cpu.mmu.stage2_dtb_walker.power_state.pwrStateResidencyTicks::UNDEFINED 615974908500                       # Cumulative time (in ticks) in various power states (Tick)
system.cpu.mmu.stage2_itb.instHits                  0                       # ITB inst hits (Count)
system.cpu.mmu.stage2_itb.instMisses                0                       # ITB inst misses (Count)
system.cpu.mmu.stage2_itb.readHits                  0                       # DTB read hits (Count)
system.cpu.mmu.stage2_itb.readMisses                0                       # DTB read misses (Count)
system.cpu.mmu.stage2_itb.writeHits                 0                       # DTB write hits (Count)
system.cpu.mmu.stage2_itb.writeMisses               0                       # DTB write misses (Count)
system.cpu.mmu.stage2_itb.inserts                   0                       # Number of times an entry is inserted into the TLB (Count)
system.cpu.mmu.stage2_itb.flushTlb                  0                       # Number of times complete TLB was flushed (Count)
system.cpu.mmu.stage2_itb.flushTlbMva               0                       # Number of times TLB was flushed by MVA (Count)
system.cpu.mmu.stage2_itb.flushTlbMvaAsid            0                       # Number of times TLB was flushed by MVA & ASID (Count)
system.cpu.mmu.stage2_itb.flushTlbAsid              0                       # Number of times TLB was flushed by ASID (Count)
system.cpu.mmu.stage2_itb.flushedEntries            0                       # Number of entries that have been flushed from TLB (Count)
system.cpu.mmu.stage2_itb.alignFaults               0                       # Number of TLB faults due to alignment restrictions (Count)
system.cpu.mmu.stage2_itb.prefetchFaults            0                       # Number of TLB faults due to prefetch (Count)
system.cpu.mmu.stage2_itb.domainFaults              0                       # Number of TLB faults due to domain restrictions (Count)
system.cpu.mmu.stage2_itb.permsFaults               0                       # Number of TLB faults due to permissions restrictions (Count)
system.cpu.mmu.stage2_itb.readAccesses              0                       # DTB read accesses (Count)
system.cpu.mmu.stage2_itb.writeAccesses             0                       # DTB write accesses (Count)
system.cpu.mmu.stage2_itb.instAccesses              0                       # ITB inst accesses (Count)
system.cpu.mmu.stage2_itb.hits                      0                       # Total TLB (inst and data) hits (Count)
system.cpu.mmu.stage2_itb.misses                    0                       # Total TLB (inst and data) misses (Count)
system.cpu.mmu.stage2_itb.accesses                  0                       # Total TLB (inst and data) accesses (Count)
system.cpu.mmu.stage2_itb_walker.walks              0                       # Table walker walks requested (Count)
system.cpu.mmu.stage2_itb_walker.requestOrigin_Requested::Data            0                       # Table walker requests started/completed, data/inst (Count)
system.cpu.mmu.stage2_itb_walker.requestOrigin_Requested::Inst            0                       # Table walker requests started/completed, data/inst (Count)
system.cpu.mmu.stage2_itb_walker.requestOrigin_Requested::total            0                       # Table walker requests started/completed, data/inst (Count)
system.cpu.mmu.stage2_itb_walker.requestOrigin_Completed::Data            0                       # Table walker requests started/completed, data/inst (Count)
system.cpu.mmu.stage2_itb_walker.requestOrigin_Completed::Inst            0                       # Table walker requests started/completed, data/inst (Count)
system.cpu.mmu.stage2_itb_walker.requestOrigin_Completed::total            0                       # Table walker requests started/completed, data/inst (Count)
system.cpu.mmu.stage2_itb_walker.requestOrigin::total            0                       # Table walker requests started/completed, data/inst (Count)
system.cpu.mmu.stage2_itb_walker.power_state.pwrStateResidencyTicks::UNDEFINED 615974908500                       # Cumulative time (in ticks) in various power states (Tick)
system.cpu.power_state.pwrStateResidencyTicks::ON 615974908500                       # Cumulative time (in ticks) in various power states (Tick)
system.cpu.thread_0.numInsts                        0                       # Number of Instructions committed (Count)
system.cpu.thread_0.numOps                          0                       # Number of Ops committed (Count)
system.cpu.thread_0.numMemRefs                      0                       # Number of Memory References (Count)
system.cpu.workload.numSyscalls                    19                       # Number of system calls (Count)
system.cpu_clk_domain.clock                       500                       # Clock period in ticks (Tick)
system.cpu_voltage_domain.voltage                   1                       # Voltage in Volts (Volt)
system.l2.demandHits::cpu.inst                    192                       # number of demand (read+write) hits (Count)
system.l2.demandHits::cpu.data                   1045                       # number of demand (read+write) hits (Count)
system.l2.demandHits::total                      1237                       # number of demand (read+write) hits (Count)
system.l2.overallHits::cpu.inst                   192                       # number of overall hits (Count)
system.l2.overallHits::cpu.data                  1045                       # number of overall hits (Count)
system.l2.overallHits::total                     1237                       # number of overall hits (Count)
system.l2.demandMisses::cpu.inst                  553                       # number of demand (read+write) misses (Count)
system.l2.demandMisses::cpu.data              5324324                       # number of demand (read+write) misses (Count)
system.l2.demandMisses::total                 5324877                       # number of demand (read+write) misses (Count)
system.l2.overallMisses::cpu.inst                 553                       # number of overall misses (Count)
system.l2.overallMisses::cpu.data             5324324                       # number of overall misses (Count)
system.l2.overallMisses::total                5324877                       # number of overall misses (Count)
system.l2.demandMissLatency::cpu.inst        43578000                       # number of demand (read+write) miss ticks (Tick)
system.l2.demandMissLatency::cpu.data    420598195500                       # number of demand (read+write) miss ticks (Tick)
system.l2.demandMissLatency::total       420641773500                       # number of demand (read+write) miss ticks (Tick)
system.l2.overallMissLatency::cpu.inst       43578000                       # number of overall miss ticks (Tick)
system.l2.overallMissLatency::cpu.data   420598195500                       # number of overall miss ticks (Tick)
system.l2.overallMissLatency::total      420641773500                       # number of overall miss ticks (Tick)
system.l2.demandAccesses::cpu.inst                745                       # number of demand (read+write) accesses (Count)
system.l2.demandAccesses::cpu.data            5325369                       # number of demand (read+write) accesses (Count)
system.l2.demandAccesses::total               5326114                       # number of demand (read+write) accesses (Count)
system.l2.overallAccesses::cpu.inst               745                       # number of overall (read+write) accesses (Count)
system.l2.overallAccesses::cpu.data           5325369                       # number of overall (read+write) accesses (Count)
system.l2.overallAccesses::total              5326114                       # number of overall (read+write) accesses (Count)
system.l2.demandMissRate::cpu.inst           0.742282                       # miss rate for demand accesses (Ratio)
system.l2.demandMissRate::cpu.data           0.999804                       # miss rate for demand accesses (Ratio)
system.l2.demandMissRate::total              0.999768                       # miss rate for demand accesses (Ratio)
system.l2.overallMissRate::cpu.inst          0.742282                       # miss rate for overall accesses (Ratio)
system.l2.overallMissRate::cpu.data          0.999804                       # miss rate for overall accesses (Ratio)
system.l2.overallMissRate::total             0.999768                       # miss rate for overall accesses (Ratio)
system.l2.demandAvgMissLatency::cpu.inst 78802.893309                       # average overall miss latency ((Cycle/Count))
system.l2.demandAvgMissLatency::cpu.data 78995.604982                       # average overall miss latency ((Cycle/Count))
system.l2.demandAvgMissLatency::total    78995.584968                       # average overall miss latency ((Cycle/Count))
system.l2.overallAvgMissLatency::cpu.inst 78802.893309                       # average overall miss latency ((Cycle/Count))
system.l2.overallAvgMissLatency::cpu.data 78995.604982                       # average overall miss latency ((Cycle/Count))
system.l2.overallAvgMissLatency::total   78995.584968                       # average overall miss latency ((Cycle/Count))
system.l2.blockedCycles::no_mshrs                   0                       # number of cycles access was blocked (Cycle)
system.l2.blockedCycles::no_targets                 0                       # number of cycles access was blocked (Cycle)
system.l2.blockedCauses::no_mshrs                   0                       # number of times access was blocked (Count)
system.l2.blockedCauses::no_targets                 0                       # number of times access was blocked (Count)
system.l2.avgBlocked::no_mshrs                    nan                       # average number of cycles each access was blocked ((Cycle/Count))
system.l2.avgBlocked::no_targets                  nan                       # average number of cycles each access was blocked ((Cycle/Count))
system.l2.writebacks::writebacks              5291296                       # number of writebacks (Count)
system.l2.writebacks::total                   5291296                       # number of writebacks (Count)
system.l2.demandMshrMisses::cpu.inst              553                       # number of demand (read+write) MSHR misses (Count)
system.l2.demandMshrMisses::cpu.data          5324324                       # number of demand (read+write) MSHR misses (Count)
system.l2.demandMshrMisses::total             5324877                       # number of demand (read+write) MSHR misses (Count)
system.l2.overallMshrMisses::cpu.inst             553                       # number of overall MSHR misses (Count)
system.l2.overallMshrMisses::cpu.data         5324324                       # number of overall MSHR misses (Count)
system.l2.overallMshrMisses::total            5324877                       # number of overall MSHR misses (Count)
system.l2.demandMshrMissLatency::cpu.inst     38048000                       # number of demand (read+write) MSHR miss ticks (Tick)
system.l2.demandMshrMissLatency::cpu.data 367354955500                       # number of demand (read+write) MSHR miss ticks (Tick)
system.l2.demandMshrMissLatency::total   367393003500                       # number of demand (read+write) MSHR miss ticks (Tick)
system.l2.overallMshrMissLatency::cpu.inst     38048000                       # number of overall MSHR miss ticks (Tick)
system.l2.overallMshrMissLatency::cpu.data 367354955500                       # number of overall MSHR miss ticks (Tick)
system.l2.overallMshrMissLatency::total  367393003500                       # number of overall MSHR miss ticks (Tick)
system.l2.demandMshrMissRate::cpu.inst       0.742282                       # mshr miss ratio for demand accesses (Ratio)
system.l2.demandMshrMissRate::cpu.data       0.999804                       # mshr miss ratio for demand accesses (Ratio)
system.l2.demandMshrMissRate::total          0.999768                       # mshr miss ratio for demand accesses (Ratio)
system.l2.overallMshrMissRate::cpu.inst      0.742282                       # mshr miss ratio for overall accesses (Ratio)
system.l2.overallMshrMissRate::cpu.data      0.999804                       # mshr miss ratio for overall accesses (Ratio)
system.l2.overallMshrMissRate::total         0.999768                       # mshr miss ratio for overall accesses (Ratio)
system.l2.demandAvgMshrMissLatency::cpu.inst 68802.893309                       # average overall mshr miss latency ((Cycle/Count))
system.l2.demandAvgMshrMissLatency::cpu.data 68995.604982                       # average overall mshr miss latency ((Cycle/Count))
system.l2.demandAvgMshrMissLatency::total 68995.584968                       # average overall mshr miss latency ((Cycle/Count))
system.l2.overallAvgMshrMissLatency::cpu.inst 68802.893309                       # average overall mshr miss latency ((Cycle/Count))
system.l2.overallAvgMshrMissLatency::cpu.data 68995.604982                       # average overall mshr miss latency ((Cycle/Count))
system.l2.overallAvgMshrMissLatency::total 68995.584968                       # average overall mshr miss latency ((Cycle/Count))
system.l2.replacements                        5292235                       # number of replacements (Count)
system.l2.ReadCleanReq.hits::cpu.inst             192                       # number of ReadCleanReq hits (Count)
system.l2.ReadCleanReq.hits::total                192                       # number of ReadCleanReq hits (Count)
system.l2.ReadCleanReq.misses::cpu.inst           553                       # number of ReadCleanReq misses (Count)
system.l2.ReadCleanReq.misses::total              553                       # number of ReadCleanReq misses (Count)
system.l2.ReadCleanReq.missLatency::cpu.inst     43578000                       # number of ReadCleanReq miss ticks (Tick)
system.l2.ReadCleanReq.missLatency::total     43578000                       # number of ReadCleanReq miss ticks (Tick)
system.l2.ReadCleanReq.accesses::cpu.inst          745                       # number of ReadCleanReq accesses(hits+misses) (Count)
system.l2.ReadCleanReq.accesses::total            745                       # number of ReadCleanReq accesses(hits+misses) (Count)
system.l2.ReadCleanReq.missRate::cpu.inst     0.742282                       # miss rate for ReadCleanReq accesses (Ratio)
system.l2.ReadCleanReq.missRate::total       0.742282                       # miss rate for ReadCleanReq accesses (Ratio)
system.l2.ReadCleanReq.avgMissLatency::cpu.inst 78802.893309                       # average ReadCleanReq miss latency ((Tick/Count))
system.l2.ReadCleanReq.avgMissLatency::total 78802.893309                       # average ReadCleanReq miss latency ((Tick/Count))
system.l2.ReadCleanReq.mshrMisses::cpu.inst          553                       # number of ReadCleanReq MSHR misses (Count)
system.l2.ReadCleanReq.mshrMisses::total          553                       # number of ReadCleanReq MSHR misses (Count)
system.l2.ReadCleanReq.mshrMissLatency::cpu.inst     38048000                       # number of ReadCleanReq MSHR miss ticks (Tick)
system.l2.ReadCleanReq.mshrMissLatency::total     38048000                       # number of ReadCleanReq MSHR miss ticks (Tick)
system.l2.ReadCleanReq.mshrMissRate::cpu.inst     0.742282                       # mshr miss rate for ReadCleanReq accesses (Ratio)
system.l2.ReadCleanReq.mshrMissRate::total     0.742282                       # mshr miss rate for ReadCleanReq accesses (Ratio)
system.l2.ReadCleanReq.avgMshrMissLatency::cpu.inst 68802.893309                       # average ReadCleanReq mshr miss latency ((Tick/Count))
system.l2.ReadCleanReq.avgMshrMissLatency::total 68802.893309                       # average ReadCleanReq mshr miss latency ((Tick/Count))
system.l2.ReadExReq.hits::cpu.data                445                       # number of ReadExReq hits (Count)
system.l2.ReadExReq.hits::total                   445                       # number of ReadExReq hits (Count)
system.l2.ReadExReq.misses::cpu.data          5324037                       # number of ReadExReq misses (Count)
system.l2.ReadExReq.misses::total             5324037                       # number of ReadExReq misses (Count)
system.l2.ReadExReq.missLatency::cpu.data 420573405000                       # number of ReadExReq miss ticks (Tick)
system.l2.ReadExReq.missLatency::total   420573405000                       # number of ReadExReq miss ticks (Tick)
system.l2.ReadExReq.accesses::cpu.data        5324482                       # number of ReadExReq accesses(hits+misses) (Count)
system.l2.ReadExReq.accesses::total           5324482                       # number of ReadExReq accesses(hits+misses) (Count)
system.l2.ReadExReq.missRate::cpu.data       0.999916                       # miss rate for ReadExReq accesses (Ratio)
system.l2.ReadExReq.missRate::total          0.999916                       # miss rate for ReadExReq accesses (Ratio)
system.l2.ReadExReq.avgMissLatency::cpu.data 78995.207021                       # average ReadExReq miss latency ((Tick/Count))
system.l2.ReadExReq.avgMissLatency::total 78995.207021                       # average ReadExReq miss latency ((Tick/Count))
system.l2.ReadExReq.mshrMisses::cpu.data      5324037                       # number of ReadExReq MSHR misses (Count)
system.l2.ReadExReq.mshrMisses::total         5324037                       # number of ReadExReq MSHR misses (Count)
system.l2.ReadExReq.mshrMissLatency::cpu.data 367333035000                       # number of ReadExReq MSHR miss ticks (Tick)
system.l2.ReadExReq.mshrMissLatency::total 367333035000                       # number of ReadExReq MSHR miss ticks (Tick)
system.l2.ReadExReq.mshrMissRate::cpu.data     0.999916                       # mshr miss rate for ReadExReq accesses (Ratio)
system.l2.ReadExReq.mshrMissRate::total      0.999916                       # mshr miss rate for ReadExReq accesses (Ratio)
system.l2.ReadExReq.avgMshrMissLatency::cpu.data 68995.207021                       # average ReadExReq mshr miss latency ((Tick/Count))
system.l2.ReadExReq.avgMshrMissLatency::total 68995.207021                       # average ReadExReq mshr miss latency ((Tick/Count))
system.l2.ReadSharedReq.hits::cpu.data            600                       # number of ReadSharedReq hits (Count)
system.l2.ReadSharedReq.hits::total               600                       # number of ReadSharedReq hits (Count)
system.l2.ReadSharedReq.misses::cpu.data          287                       # number of ReadSharedReq misses (Count)
system.l2.ReadSharedReq.misses::total             287                       # number of ReadSharedReq misses (Count)
system.l2.ReadSharedReq.missLatency::cpu.data     24790500                       # number of ReadSharedReq miss ticks (Tick)
system.l2.ReadSharedReq.missLatency::total     24790500                       # number of ReadSharedReq miss ticks (Tick)
system.l2.ReadSharedReq.accesses::cpu.data          887                       # number of ReadSharedReq accesses(hits+misses) (Count)
system.l2.ReadSharedReq.accesses::total           887                       # number of ReadSharedReq accesses(hits+misses) (Count)
system.l2.ReadSharedReq.missRate::cpu.data     0.323563                       # miss rate for ReadSharedReq accesses (Ratio)
system.l2.ReadSharedReq.missRate::total      0.323563                       # miss rate for ReadSharedReq accesses (Ratio)
system.l2.ReadSharedReq.avgMissLatency::cpu.data 86378.048780                       # average ReadSharedReq miss latency ((Tick/Count))
system.l2.ReadSharedReq.avgMissLatency::total 86378.048780                       # average ReadSharedReq miss latency ((Tick/Count))
system.l2.ReadSharedReq.mshrMisses::cpu.data          287                       # number of ReadSharedReq MSHR misses (Count)
system.l2.ReadSharedReq.mshrMisses::total          287                       # number of ReadSharedReq MSHR misses (Count)
system.l2.ReadSharedReq.mshrMissLatency::cpu.data     21920500                       # number of ReadSharedReq MSHR miss ticks (Tick)
system.l2.ReadSharedReq.mshrMissLatency::total     21920500                       # number of ReadSharedReq MSHR miss ticks (Tick)
system.l2.ReadSharedReq.mshrMissRate::cpu.data     0.323563                       # mshr miss rate for ReadSharedReq accesses (Ratio)
system.l2.ReadSharedReq.mshrMissRate::total     0.323563                       # mshr miss rate for ReadSharedReq accesses (Ratio)
system.l2.ReadSharedReq.avgMshrMissLatency::cpu.data 76378.048780                       # average ReadSharedReq mshr miss latency ((Tick/Count))
system.l2.ReadSharedReq.avgMshrMissLatency::total 76378.048780                       # average ReadSharedReq mshr miss latency ((Tick/Count))
system.l2.WritebackClean.hits::writebacks          596                       # number of WritebackClean hits (Count)
system.l2.WritebackClean.hits::total              596                       # number of WritebackClean hits (Count)
system.l2.WritebackClean.accesses::writebacks          596                       # number of WritebackClean accesses(hits+misses) (Count)
system.l2.WritebackClean.accesses::total          596                       # number of WritebackClean accesses(hits+misses) (Count)
system.l2.WritebackDirty.hits::writebacks      5324510                       # number of WritebackDirty hits (Count)
system.l2.WritebackDirty.hits::total          5324510                       # number of WritebackDirty hits (Count)
system.l2.WritebackDirty.accesses::writebacks      5324510                       # number of WritebackDirty accesses(hits+misses) (Count)
system.l2.WritebackDirty.accesses::total      5324510                       # number of WritebackDirty accesses(hits+misses) (Count)
system.l2.power_state.pwrStateResidencyTicks::UNDEFINED 615974908500                       # Cumulative time (in ticks) in various power states (Tick)
system.l2.tags.tagsInUse                 32360.850031                       # Average ticks per tags in use ((Tick/Count))
system.l2.tags.totalRefs                     10651901                       # Total number of references to valid blocks. (Count)
system.l2.tags.sampledRefs                    5325003                       # Sample count of references to valid blocks. (Count)
system.l2.tags.avgRefs                       2.000356                       # Average number of references to valid blocks. ((Count/Count))
system.l2.tags.warmupTick                       77000                       # The tick when the warmup percentage was hit. (Tick)
system.l2.tags.occupancies::writebacks       0.729850                       # Average occupied blocks per tick, per requestor ((Count/Tick))
system.l2.tags.occupancies::cpu.inst         6.111476                       # Average occupied blocks per tick, per requestor ((Count/Tick))
system.l2.tags.occupancies::cpu.data     32354.008704                       # Average occupied blocks per tick, per requestor ((Count/Tick))
system.l2.tags.avgOccs::writebacks           0.000022                       # Average percentage of cache occupancy ((Ratio/Tick))
system.l2.tags.avgOccs::cpu.inst             0.000187                       # Average percentage of cache occupancy ((Ratio/Tick))
system.l2.tags.avgOccs::cpu.data             0.987366                       # Average percentage of cache occupancy ((Ratio/Tick))
system.l2.tags.avgOccs::total                0.987575                       # Average percentage of cache occupancy ((Ratio/Tick))
system.l2.tags.occupanciesTaskId::1024          32768                       # Occupied blocks per task id (Count)
system.l2.tags.ageTaskId_1024::0                   87                       # Occupied blocks per task id, per block age (Count)
system.l2.tags.ageTaskId_1024::1                  785                       # Occupied blocks per task id, per block age (Count)
system.l2.tags.ageTaskId_1024::2                 7862                       # Occupied blocks per task id, per block age (Count)
system.l2.tags.ageTaskId_1024::3                24034                       # Occupied blocks per task id, per block age (Count)
system.l2.tags.ratioOccsTaskId::1024                1                       # Ratio of occupied blocks and all blocks, per task id (Ratio)
system.l2.tags.tagAccesses                   90540211                       # Number of tag accesses (Count)
system.l2.tags.dataAccesses                  90540211                       # Number of data accesses (Count)
system.l2.tags.power_state.pwrStateResidencyTicks::UNDEFINED 615974908500                       # Cumulative time (in ticks) in various power states (Tick)
system.mem_ctrls.avgPriority_writebacks::samples   5291296.00                       # Average QoS priority value for accepted requests (Count)
system.mem_ctrls.avgPriority_cpu.inst::samples       553.00                       # Average QoS priority value for accepted requests (Count)
system.mem_ctrls.avgPriority_cpu.data::samples   5324324.00                       # Average QoS priority value for accepted requests (Count)
system.mem_ctrls.priorityMinLatency      0.000000018750                       # per QoS priority minimum request to response latency (Second)
system.mem_ctrls.priorityMaxLatency      0.000486536500                       # per QoS priority maximum request to response latency (Second)
system.mem_ctrls.numReadWriteTurnArounds       330672                       # Number of turnarounds from READ to WRITE (Count)
system.mem_ctrls.numWriteReadTurnArounds       330672                       # Number of turnarounds from WRITE to READ (Count)
system.mem_ctrls.numStayReadState            15768211                       # Number of times bus staying in READ state (Count)
system.mem_ctrls.numStayWriteState            4960801                       # Number of times bus staying in WRITE state (Count)
system.mem_ctrls.readReqs                     5324877                       # Number of read requests accepted (Count)
system.mem_ctrls.writeReqs                    5291296                       # Number of write requests accepted (Count)
system.mem_ctrls.readBursts                   5324877                       # Number of controller read bursts, including those serviced by the write queue (Count)
system.mem_ctrls.writeBursts                  5291296                       # Number of controller write bursts, including those merged in the write queue (Count)
system.mem_ctrls.servicedByWrQ                      0                       # Number of controller read bursts serviced by the write queue (Count)
system.mem_ctrls.mergedWrBursts                     0                       # Number of controller write bursts merged with an existing one (Count)
system.mem_ctrls.neitherReadNorWriteReqs            0                       # Number of requests that are neither read nor write (Count)
system.mem_ctrls.avgRdQLen                       1.00                       # Average read queue length when enqueuing ((Count/Tick))
system.mem_ctrls.avgWrQLen                      25.48                       # Average write queue length when enqueuing ((Count/Tick))
system.mem_ctrls.numRdRetry                         0                       # Number of times read queue was full causing retry (Count)
system.mem_ctrls.numWrRetry                         0                       # Number of times write queue was full causing retry (Count)
system.mem_ctrls.readPktSize::0                     0                       # Read request sizes (log2) (Count)
system.mem_ctrls.readPktSize::1                     0                       # Read request sizes (log2) (Count)
system.mem_ctrls.readPktSize::2                     0                       # Read request sizes (log2) (Count)
system.mem_ctrls.readPktSize::3                     0                       # Read request sizes (log2) (Count)
system.mem_ctrls.readPktSize::4                     0                       # Read request sizes (log2) (Count)
system.mem_ctrls.readPktSize::5                     0                       # Read request sizes (log2) (Count)
[...]
system.mem_ctrls.dram.perBankWrBursts::7       330691                       # Per bank write bursts (Count)
system.mem_ctrls.dram.perBankWrBursts::8       330841                       # Per bank write bursts (Count)
system.mem_ctrls.dram.perBankWrBursts::9       330762                       # Per bank write bursts (Count)
system.mem_ctrls.dram.perBankWrBursts::10       330808                       # Per bank write bursts (Count)
system.mem_ctrls.dram.perBankWrBursts::11       330822                       # Per bank write bursts (Count)
system.mem_ctrls.dram.perBankWrBursts::12       330827                       # Per bank write bursts (Count)
system.mem_ctrls.dram.perBankWrBursts::13       330703                       # Per bank write bursts (Count)
system.mem_ctrls.dram.perBankWrBursts::14       330624                       # Per bank write bursts (Count)
system.mem_ctrls.dram.perBankWrBursts::15       330624                       # Per bank write bursts (Count)
system.mem_ctrls.dram.totQLat             50529716000                       # Total ticks spent queuing (Tick)
system.mem_ctrls.dram.totBusLat           26624385000                       # Total ticks spent in databus transfers (Tick)
system.mem_ctrls.dram.totMemAccLat       150371159750                       # Total ticks spent from burst creation until serviced by the DRAM (Tick)
system.mem_ctrls.dram.avgQLat                 9489.37                       # Average queueing delay per DRAM burst ((Tick/Count))
system.mem_ctrls.dram.avgBusLat               5000.00                       # Average bus latency per DRAM burst ((Tick/Count))
system.mem_ctrls.dram.avgMemAccLat           28239.37                       # Average memory access latency per DRAM burst ((Tick/Count))
system.mem_ctrls.dram.readRowHits             4910724                       # Number of row buffer hits during reads (Count)
system.mem_ctrls.dram.writeRowHits            4918223                       # Number of row buffer hits during writes (Count)
system.mem_ctrls.dram.readRowHitRate            92.22                       # Row buffer hit rate for reads (Ratio)
system.mem_ctrls.dram.writeRowHitRate           92.95                       # Row buffer hit rate for writes (Ratio)
system.mem_ctrls.dram.bytesPerActivate::samples       787204                       # Bytes accessed per row activation (Byte)
system.mem_ctrls.dram.bytesPerActivate::mean   863.097078                       # Bytes accessed per row activation (Byte)
system.mem_ctrls.dram.bytesPerActivate::gmean   720.550825                       # Bytes accessed per row activation (Byte)
system.mem_ctrls.dram.bytesPerActivate::stdev   310.377367                       # Bytes accessed per row activation (Byte)
system.mem_ctrls.dram.bytesPerActivate::0-127        62208      7.90%      7.90% # Bytes accessed per row activation (Byte)
system.mem_ctrls.dram.bytesPerActivate::128-255        20672      2.63%     10.53% # Bytes accessed per row activation (Byte)
system.mem_ctrls.dram.bytesPerActivate::256-383        20455      2.60%     13.13% # Bytes accessed per row activation (Byte)
system.mem_ctrls.dram.bytesPerActivate::384-511        20277      2.58%     15.70% # Bytes accessed per row activation (Byte)
system.mem_ctrls.dram.bytesPerActivate::512-639        19517      2.48%     18.18% # Bytes accessed per row activation (Byte)
system.mem_ctrls.dram.bytesPerActivate::640-767        20775      2.64%     20.82% # Bytes accessed per row activation (Byte)
system.mem_ctrls.dram.bytesPerActivate::768-895        18558      2.36%     23.18% # Bytes accessed per row activation (Byte)
system.mem_ctrls.dram.bytesPerActivate::896-1023        62191      7.90%     31.08% # Bytes accessed per row activation (Byte)
system.mem_ctrls.dram.bytesPerActivate::1024-1151       542551     68.92%    100.00% # Bytes accessed per row activation (Byte)
system.mem_ctrls.dram.bytesPerActivate::total       787204                       # Bytes accessed per row activation (Byte)
system.mem_ctrls.dram.bytesRead             340792128                       # Total number of bytes read from DRAM (Byte)
system.mem_ctrls.dram.bytesWritten          338641600                       # Total number of bytes written to DRAM (Byte)
system.mem_ctrls.dram.avgRdBW              553.256510                       # Average DRAM read bandwidth in MiBytes/s ((Byte/Second))
system.mem_ctrls.dram.avgWrBW              549.765251                       # Average DRAM write bandwidth in MiBytes/s ((Byte/Second))
system.mem_ctrls.dram.peakBW                 12800.00                       # Theoretical peak bandwidth in MiByte/s ((Byte/Second))
system.mem_ctrls.dram.busUtil                    8.62                       # Data bus utilization in percentage (Ratio)
system.mem_ctrls.dram.busUtilRead                4.32                       # Data bus utilization in percentage for reads (Ratio)
system.mem_ctrls.dram.busUtilWrite               4.30                       # Data bus utilization in percentage for writes (Ratio)
system.mem_ctrls.dram.pageHitRate               92.58                       # Row buffer hit rate, read and write combined (Ratio)
system.mem_ctrls.dram.power_state.pwrStateResidencyTicks::UNDEFINED 615974908500                       # Cumulative time (in ticks) in various power states (Tick)
system.mem_ctrls.dram.rank0.actEnergy      2809532880                       # Energy for activate commands per rank (pJ) (Joule)
system.mem_ctrls.dram.rank0.preEnergy      1493298345                       # Energy for precharge commands per rank (pJ) (Joule)
system.mem_ctrls.dram.rank0.readEnergy    19007629620                       # Energy for read commands per rank (pJ) (Joule)
system.mem_ctrls.dram.rank0.writeEnergy   13808278080                       # Energy for write commands per rank (pJ) (Joule)
system.mem_ctrls.dram.rank0.refreshEnergy 48624170400.000008                       # Energy for refresh commands per rank (pJ) (Joule)
system.mem_ctrls.dram.rank0.actBackEnergy 145390112610                       # Energy for active background per rank (pJ) (Joule)
system.mem_ctrls.dram.rank0.preBackEnergy 114100585920                       # Energy for precharge background per rank (pJ) (Joule)
system.mem_ctrls.dram.rank0.actPowerDownEnergy            0                       # Energy for active power-down per rank (pJ) (Joule)
system.mem_ctrls.dram.rank0.prePowerDownEnergy            0                       # Energy for precharge power-down per rank (pJ) (Joule)
system.mem_ctrls.dram.rank0.selfRefreshEnergy            0                       # Energy for self refresh per rank (pJ) (Joule)
system.mem_ctrls.dram.rank0.totalEnergy  345233607855                       # Total energy per rank (pJ) (Joule)
system.mem_ctrls.dram.rank0.averagePower   560.466998                       # Core power per rank (mW) (Watt)
system.mem_ctrls.dram.rank0.totalIdleTime            0                       # Total Idle time Per DRAM Rank (Tick)
system.mem_ctrls.dram.rank0.pwrStateTime::IDLE 292584146750                       # Time in different power states (Tick)
system.mem_ctrls.dram.rank0.pwrStateTime::REF  20568600000                       # Time in different power states (Tick)
system.mem_ctrls.dram.rank0.pwrStateTime::SREF            0                       # Time in different power states (Tick)
system.mem_ctrls.dram.rank0.pwrStateTime::PRE_PDN            0                       # Time in different power states (Tick)
system.mem_ctrls.dram.rank0.pwrStateTime::ACT 302822161750                       # Time in different power states (Tick)
system.mem_ctrls.dram.rank0.pwrStateTime::ACT_PDN            0                       # Time in different power states (Tick)
system.mem_ctrls.dram.rank1.actEnergy      2811110820                       # Energy for activate commands per rank (pJ) (Joule)
system.mem_ctrls.dram.rank1.preEnergy      1494140835                       # Energy for precharge commands per rank (pJ) (Joule)
system.mem_ctrls.dram.rank1.readEnergy    19011992160                       # Energy for read commands per rank (pJ) (Joule)
system.mem_ctrls.dram.rank1.writeEnergy   13812177420                       # Energy for write commands per rank (pJ) (Joule)
system.mem_ctrls.dram.rank1.refreshEnergy 48624170400.000008                       # Energy for refresh commands per rank (pJ) (Joule)
system.mem_ctrls.dram.rank1.actBackEnergy 145482380220                       # Energy for active background per rank (pJ) (Joule)
system.mem_ctrls.dram.rank1.preBackEnergy 114022886880                       # Energy for precharge background per rank (pJ) (Joule)
system.mem_ctrls.dram.rank1.actPowerDownEnergy            0                       # Energy for active power-down per rank (pJ) (Joule)
system.mem_ctrls.dram.rank1.prePowerDownEnergy            0                       # Energy for precharge power-down per rank (pJ) (Joule)
system.mem_ctrls.dram.rank1.selfRefreshEnergy            0                       # Energy for self refresh per rank (pJ) (Joule)
system.mem_ctrls.dram.rank1.totalEnergy  345258858735                       # Total energy per rank (pJ) (Joule)
system.mem_ctrls.dram.rank1.averagePower   560.507991                       # Core power per rank (mW) (Watt)
system.mem_ctrls.dram.rank1.totalIdleTime            0                       # Total Idle time Per DRAM Rank (Tick)
system.mem_ctrls.dram.rank1.pwrStateTime::IDLE 292382480000                       # Time in different power states (Tick)
system.mem_ctrls.dram.rank1.pwrStateTime::REF  20568600000                       # Time in different power states (Tick)
system.mem_ctrls.dram.rank1.pwrStateTime::SREF            0                       # Time in different power states (Tick)
system.mem_ctrls.dram.rank1.pwrStateTime::PRE_PDN            0                       # Time in different power states (Tick)
system.mem_ctrls.dram.rank1.pwrStateTime::ACT 303023828500                       # Time in different power states (Tick)
system.mem_ctrls.dram.rank1.pwrStateTime::ACT_PDN            0                       # Time in different power states (Tick)
system.mem_ctrls.power_state.pwrStateResidencyTicks::UNDEFINED 615974908500                       # Cumulative time (in ticks) in various power states (Tick)
system.membus.transDist::ReadResp                 840                       # Transaction distribution (Count)
system.membus.transDist::WritebackDirty       5291296                       # Transaction distribution (Count)
system.membus.transDist::CleanEvict               683                       # Transaction distribution (Count)
system.membus.transDist::ReadExReq            5324037                       # Transaction distribution (Count)
system.membus.transDist::ReadExResp           5324037                       # Transaction distribution (Count)
system.membus.transDist::ReadSharedReq            840                       # Transaction distribution (Count)
system.membus.pktCount_system.l2.mem_side_port::system.mem_ctrls.port     15941733                       # Packet count per connected requestor and responder (Count)
system.membus.pktCount::total                15941733                       # Packet count per connected requestor and responder (Count)
system.membus.pktSize_system.l2.mem_side_port::system.mem_ctrls.port    679435072                       # Cumulative packet size per connected requestor and responder (Byte)
system.membus.pktSize::total                679435072                       # Cumulative packet size per connected requestor and responder (Byte)
system.membus.snoops                                0                       # Total snoops (Count)
system.membus.snoopTraffic                          0                       # Total snoop traffic (Byte)
system.membus.snoopFanout::samples            5324877                       # Request fanout histogram (Count)
system.membus.snoopFanout::mean                     0                       # Request fanout histogram (Count)
system.membus.snoopFanout::stdev                    0                       # Request fanout histogram (Count)
system.membus.snoopFanout::underflows               0      0.00%      0.00% # Request fanout histogram (Count)
system.membus.snoopFanout::0                  5324877    100.00%    100.00% # Request fanout histogram (Count)
system.membus.snoopFanout::1                        0      0.00%    100.00% # Request fanout histogram (Count)
system.membus.snoopFanout::overflows                0      0.00%    100.00% # Request fanout histogram (Count)
system.membus.snoopFanout::min_value                0                       # Request fanout histogram (Count)
system.membus.snoopFanout::max_value                0                       # Request fanout histogram (Count)
system.membus.snoopFanout::total              5324877                       # Request fanout histogram (Count)
system.membus.power_state.pwrStateResidencyTicks::UNDEFINED 615974908500                       # Cumulative time (in ticks) in various power states (Tick)
system.membus.reqLayer0.occupancy         31782083500                       # Layer occupancy (ticks) (Tick)
system.membus.reqLayer0.utilization               0.1                       # Layer utilization (Ratio)
system.membus.respLayer1.occupancy        27988628250                       # Layer occupancy (ticks) (Tick)
system.membus.respLayer1.utilization              0.0                       # Layer utilization (Ratio)
system.membus.snoop_filter.totRequests       10616856                       # Total number of requests made to the snoop filter. (Count)
system.membus.snoop_filter.hitSingleRequests      5291981                       # Number of requests hitting in the snoop filter with a single holder of the requested data. (Count)
system.membus.snoop_filter.hitMultiRequests            0                       # Number of requests hitting in the snoop filter with multiple (>1) holders of the requested data. (Count)
system.membus.snoop_filter.totSnoops                0                       # Total number of snoops made to the snoop filter. (Count)
system.membus.snoop_filter.hitSingleSnoops            0                       # Number of snoops hitting in the snoop filter with a single holder of the requested data. (Count)
system.membus.snoop_filter.hitMultiSnoops            0                       # Number of snoops hitting in the snoop filter with multiple (>1) holders of the requested data. (Count)
system.tol2bus.transDist::ReadResp               1632                       # Transaction distribution (Count)
system.tol2bus.transDist::WritebackDirty     10615806                       # Transaction distribution (Count)
system.tol2bus.transDist::WritebackClean          617                       # Transaction distribution (Count)
system.tol2bus.transDist::CleanEvict             1670                       # Transaction distribution (Count)
system.tol2bus.transDist::ReadExReq           5324482                       # Transaction distribution (Count)
system.tol2bus.transDist::ReadExResp          5324482                       # Transaction distribution (Count)
system.tol2bus.transDist::ReadCleanReq            745                       # Transaction distribution (Count)
system.tol2bus.transDist::ReadSharedReq           887                       # Transaction distribution (Count)
system.tol2bus.pktCount_system.cpu.icache.mem_side_port::system.l2.cpu_side_port         2107                       # Packet count per connected requestor and responder (Count)
system.tol2bus.pktCount_system.cpu.dcache.mem_side_port::system.l2.cpu_side_port     15975979                       # Packet count per connected requestor and responder (Count)
system.tol2bus.pktCount::total               15978086                       # Packet count per connected requestor and responder (Count)
system.tol2bus.pktSize_system.cpu.icache.mem_side_port::system.l2.cpu_side_port        87168                       # Cumulative packet size per connected requestor and responder (Byte)
system.tol2bus.pktSize_system.cpu.dcache.mem_side_port::system.l2.cpu_side_port    681592256                       # Cumulative packet size per connected requestor and responder (Byte)
system.tol2bus.pktSize::total               681679424                       # Cumulative packet size per connected requestor and responder (Byte)
system.tol2bus.snoops                         5292235                       # Total snoops (Count)
system.tol2bus.snoopTraffic                 338642944                       # Total snoop traffic (Byte)
system.tol2bus.snoopFanout::samples          10618349                       # Request fanout histogram (Count)
system.tol2bus.snoopFanout::mean             0.000031                       # Request fanout histogram (Count)
system.tol2bus.snoopFanout::stdev            0.005549                       # Request fanout histogram (Count)
system.tol2bus.snoopFanout::underflows              0      0.00%      0.00% # Request fanout histogram (Count)
system.tol2bus.snoopFanout::0                10618022    100.00%    100.00% # Request fanout histogram (Count)
system.tol2bus.snoopFanout::1                     327      0.00%    100.00% # Request fanout histogram (Count)
system.tol2bus.snoopFanout::2                       0      0.00%    100.00% # Request fanout histogram (Count)
system.tol2bus.snoopFanout::overflows               0      0.00%    100.00% # Request fanout histogram (Count)
system.tol2bus.snoopFanout::min_value               0                       # Request fanout histogram (Count)
system.tol2bus.snoopFanout::max_value               1                       # Request fanout histogram (Count)
system.tol2bus.snoopFanout::total            10618349                       # Request fanout histogram (Count)
system.tol2bus.power_state.pwrStateResidencyTicks::UNDEFINED 615974908500                       # Cumulative time (in ticks) in various power states (Tick)
system.tol2bus.reqLayer0.occupancy        10651113000                       # Layer occupancy (ticks) (Tick)
system.tol2bus.reqLayer0.utilization              0.0                       # Layer utilization (Ratio)
system.tol2bus.respLayer0.occupancy           1117500                       # Layer occupancy (ticks) (Tick)
system.tol2bus.respLayer0.utilization             0.0                       # Layer utilization (Ratio)
system.tol2bus.respLayer1.occupancy        7988053500                       # Layer occupancy (ticks) (Tick)
system.tol2bus.respLayer1.utilization             0.0                       # Layer utilization (Ratio)
system.tol2bus.snoop_filter.totRequests      10651972                       # Total number of requests made to the snoop filter. (Count)
system.tol2bus.snoop_filter.hitSingleRequests      5325858                       # Number of requests hitting in the snoop filter with a single holder of the requested data. (Count)
system.tol2bus.snoop_filter.hitMultiRequests           71                       # Number of requests hitting in the snoop filter with multiple (>1) holders of the requested data. (Count)
system.tol2bus.snoop_filter.totSnoops             256                       # Total number of snoops made to the snoop filter. (Count)
system.tol2bus.snoop_filter.hitSingleSnoops          256                       # Number of snoops hitting in the snoop filter with a single holder of the requested data. (Count)
system.tol2bus.snoop_filter.hitMultiSnoops            0                       # Number of snoops hitting in the snoop filter with multiple (>1) holders of the requested data. (Count)
system.voltage_domain.voltage                       1                       # Voltage in Volts (Volt)
system.workload.inst.arm                            0                       # number of arm instructions executed (Count)
system.workload.inst.quiesce                        0                       # number of quiesce instructions executed (Count)

---------- End Simulation Statistics   ----------
