
---------- Begin Simulation Statistics ----------
simSeconds                                   0.201914                       # Number of seconds simulated (Second)
simTicks                                 201914206500                       # Number of ticks simulated (Tick)
finalTick                                201914206500                       # Number of ticks from beginning of simulation (restored from checkpoints and never reset) (Tick)
simFreq                                  1000000000000                       # The number of ticks per simulated second ((Tick/Second))
hostSeconds                                   1282.77                       # Real time elapsed on the host (Second)
hostTickRate                                157404702                       # The number of ticks simulated per host second (ticks/s) ((Tick/Second))
hostMemory                                     747752                       # Number of bytes of host memory used (Byte)
simInsts                                    100000001                       # Number of instructions simulated (Count)
simOps                                      185151994                       # Number of ops (including micro ops) simulated (Count)
hostInstRate                                    77956                       # Simulator instruction rate (inst/s) ((Count/Second))
hostOpRate                                     144338                       # Simulator op (including micro ops) rate (op/s) ((Count/Second))
system.clk_domain.clock                          1000                       # Clock period in ticks (Tick)
system.cpu.numCycles                        403828414                       # Number of cpu cycles simulated (Cycle)
system.cpu.numWorkItemsStarted                      0                       # Number of work items this cpu started (Count)
system.cpu.numWorkItemsCompleted                    0                       # Number of work items this cpu completed (Count)
system.cpu.instsAdded                       188241216                       # Number of instructions added to the IQ (excludes non-spec) (Count)
system.cpu.nonSpecInstsAdded                      107                       # Number of non-speculative instructions added to the IQ (Count)
system.cpu.instsIssued                      188215858                       # Number of instructions issued (Count)
system.cpu.squashedInstsIssued                    228                       # Number of squashed instructions issued (Count)
system.cpu.squashedInstsExamined              3089313                       # Number of squashed instructions iterated over during squash; mainly for profiling (Count)
system.cpu.squashedOperandsExamined           4512456                       # Number of squashed operands that are examined and possibly removed from graph (Count)
system.cpu.squashedNonSpecRemoved                  20                       # Number of squashed non-spec instructions that were removed (Count)
system.cpu.numIssuedDist::samples           403772655                       # Number of insts issued each cycle (Count)
system.cpu.numIssuedDist::mean               0.466143                       # Number of insts issued each cycle (Count)
system.cpu.numIssuedDist::stdev              1.260854                       # Number of insts issued each cycle (Count)
system.cpu.numIssuedDist::underflows                0      0.00%      0.00% # Number of insts issued each cycle (Count)
system.cpu.numIssuedDist::0                 347675419     86.11%     86.11% # Number of insts issued each cycle (Count)
system.cpu.numIssuedDist::1                  10459668      2.59%     88.70% # Number of insts issued each cycle (Count)
system.cpu.numIssuedDist::2                   2717254      0.67%     89.37% # Number of insts issued each cycle (Count)
system.cpu.numIssuedDist::3                   7736056      1.92%     91.29% # Number of insts issued each cycle (Count)
system.cpu.numIssuedDist::4                  26951457      6.67%     97.96% # Number of insts issued each cycle (Count)
system.cpu.numIssuedDist::5                   8117218      2.01%     99.97% # Number of insts issued each cycle (Count)
system.cpu.numIssuedDist::6                     87899      0.02%     99.99% # Number of insts issued each cycle (Count)
system.cpu.numIssuedDist::7                     27270      0.01%    100.00% # Number of insts issued each cycle (Count)
system.cpu.numIssuedDist::8                       414      0.00%    100.00% # Number of insts issued each cycle (Count)
system.cpu.numIssuedDist::overflows                 0      0.00%    100.00% # Number of insts issued each cycle (Count)
system.cpu.numIssuedDist::min_value                 0                       # Number of insts issued each cycle (Count)
system.cpu.numIssuedDist::max_value                 8                       # Number of insts issued each cycle (Count)
system.cpu.numIssuedDist::total             403772655                       # Number of insts issued each cycle (Count)
system.cpu.statFuBusy::No_OpClass                   0      0.00%      0.00% # attempts to use FU when none available (Count)
system.cpu.statFuBusy::IntAlu                     127      0.18%      0.18% # attempts to use FU when none available (Count)
system.cpu.statFuBusy::IntMult                      0      0.00%      0.18% # attempts to use FU when none available (Count)
system.cpu.statFuBusy::IntDiv                       0      0.00%      0.18% # attempts to use FU when none available (Count)
system.cpu.statFuBusy::FloatAdd                     0      0.00%      0.18% # attempts to use FU when none available (Count)
system.cpu.statFuBusy::FloatCmp                     0      0.00%      0.18% # attempts to use FU when none available (Count)
system.cpu.statFuBusy::FloatCvt                     0      0.00%      0.18% # attempts to use FU when none available (Count)
system.cpu.statFuBusy::FloatMult                    0      0.00%      0.18% # attempts to use FU when none available (Count)
system.cpu.statFuBusy::FloatMultAcc                 0      0.00%      0.18% # attempts to use FU when none available (Count)
system.cpu.statFuBusy::FloatDiv                     0      0.00%      0.18% # attempts to use FU when none available (Count)
system.cpu.statFuBusy::FloatMisc                    0      0.00%      0.18% # attempts to use FU when none available (Count)
system.cpu.statFuBusy::FloatSqrt                    0      0.00%      0.18% # attempts to use FU when none available (Count)
system.cpu.statFuBusy::SimdAdd                      0      0.00%      0.18% # attempts to use FU when none available (Count)
system.cpu.statFuBusy::SimdAddAcc                   0      0.00%      0.18% # attempts to use FU when none available (Count)
system.cpu.statFuBusy::SimdAlu                      0      0.00%      0.18% # attempts to use FU when none available (Count)
system.cpu.statFuBusy::SimdCmp                      0      0.00%      0.18% # attempts to use FU when none available (Count)
system.cpu.statFuBusy::SimdCvt                      0      0.00%      0.18% # attempts to use FU when none available (Count)
system.cpu.statFuBusy::SimdMisc                     0      0.00%      0.18% # attempts to use FU when none available (Count)
system.cpu.statFuBusy::SimdMult                     0      0.00%      0.18% # attempts to use FU when none available (Count)
system.cpu.statFuBusy::SimdMultAcc                  0      0.00%      0.18% # attempts to use FU when none available (Count)
system.cpu.statFuBusy::SimdShift                    0      0.00%      0.18% # attempts to use FU when none available (Count)
system.cpu.statFuBusy::SimdShiftAcc                 0      0.00%      0.18% # attempts to use FU when none available (Count)
system.cpu.statFuBusy::SimdDiv                      0      0.00%      0.18% # attempts to use FU when none available (Count)
system.cpu.statFuBusy::SimdSqrt                     0      0.00%      0.18% # attempts to use FU when none available (Count)
system.cpu.statFuBusy::SimdFloatAdd                 0      0.00%      0.18% # attempts to use FU when none available (Count)
system.cpu.statFuBusy::SimdFloatAlu                 0      0.00%      0.18% # attempts to use FU when none available (Count)
system.cpu.statFuBusy::SimdFloatCmp                 0      0.00%      0.18% # attempts to use FU when none available (Count)
system.cpu.statFuBusy::SimdFloatCvt                 0      0.00%      0.18% # attempts to use FU when none available (Count)
system.cpu.statFuBusy::SimdFloatDiv                 0      0.00%      0.18% # attempts to use FU when none available (Count)
system.cpu.statFuBusy::SimdFloatMisc                0      0.00%      0.18% # attempts to use FU when none available (Count)
system.cpu.statFuBusy::SimdFloatMult                0      0.00%      0.18% # attempts to use FU when none available (Count)
system.cpu.statFuBusy::SimdFloatMultAcc             0      0.00%      0.18% # attempts to use FU when none available (Count)
system.cpu.statFuBusy::SimdFloatSqrt                0      0.00%      0.18% # attempts to use FU when none available (Count)
system.cpu.statFuBusy::SimdReduceAdd                0      0.00%      0.18% # attempts to use FU when none available (Count)
system.cpu.statFuBusy::SimdReduceAlu                0      0.00%      0.18% # attempts to use FU when none available (Count)
system.cpu.statFuBusy::SimdReduceCmp                0      0.00%      0.18% # attempts to use FU when none available (Count)
system.cpu.statFuBusy::SimdFloatReduceAdd            0      0.00%      0.18% # attempts to use FU when none available (Count)
system.cpu.statFuBusy::SimdFloatReduceCmp            0      0.00%      0.18% # attempts to use FU when none available (Count)
system.cpu.statFuBusy::SimdAes                      0      0.00%      0.18% # attempts to use FU when none available (Count)
system.cpu.statFuBusy::SimdAesMix                   0      0.00%      0.18% # attempts to use FU when none available (Count)
system.cpu.statFuBusy::SimdSha1Hash                 0      0.00%      0.18% # attempts to use FU when none available (Count)
system.cpu.statFuBusy::SimdSha1Hash2                0      0.00%      0.18% # attempts to use FU when none available (Count)
system.cpu.statFuBusy::SimdSha256Hash               0      0.00%      0.18% # attempts to use FU when none available (Count)
system.cpu.statFuBusy::SimdSha256Hash2              0      0.00%      0.18% # attempts to use FU when none available (Count)
system.cpu.statFuBusy::SimdShaSigma2                0      0.00%      0.18% # attempts to use FU when none available (Count)
system.cpu.statFuBusy::SimdShaSigma3                0      0.00%      0.18% # attempts to use FU when none available (Count)
system.cpu.statFuBusy::SimdPredAlu                  0      0.00%      0.18% # attempts to use FU when none available (Count)
system.cpu.statFuBusy::MemRead                  71265     98.71%     98.88% # attempts to use FU when none available (Count)
system.cpu.statFuBusy::MemWrite                   805      1.12%    100.00% # attempts to use FU when none available (Count)
system.cpu.statFuBusy::FloatMemRead                 0      0.00%    100.00% # attempts to use FU when none available (Count)
system.cpu.statFuBusy::FloatMemWrite                0      0.00%    100.00% # attempts to use FU when none available (Count)
system.cpu.statFuBusy::IprAccess                    0      0.00%    100.00% # attempts to use FU when none available (Count)
system.cpu.statFuBusy::InstPrefetch                 0      0.00%    100.00% # attempts to use FU when none available (Count)
system.cpu.statIssuedInstType_0::No_OpClass            4      0.00%      0.00% # Number of instructions issued per FU type, per thread (Count)
system.cpu.statIssuedInstType_0::IntAlu      99460999     52.84%     52.84% # Number of instructions issued per FU type, per thread (Count)
system.cpu.statIssuedInstType_0::IntMult           81      0.00%     52.84% # Number of instructions issued per FU type, per thread (Count)
system.cpu.statIssuedInstType_0::IntDiv             0      0.00%     52.84% # Number of instructions issued per FU type, per thread (Count)
system.cpu.statIssuedInstType_0::FloatAdd            0      0.00%     52.84% # Number of instructions issued per FU type, per thread (Count)
system.cpu.statIssuedInstType_0::FloatCmp            0      0.00%     52.84% # Number of instructions issued per FU type, per thread (Count)
system.cpu.statIssuedInstType_0::FloatCvt            0      0.00%     52.84% # Number of instructions issued per FU type, per thread (Count)
system.cpu.statIssuedInstType_0::FloatMult            0      0.00%     52.84% # Number of instructions issued per FU type, per thread (Count)
system.cpu.statIssuedInstType_0::FloatMultAcc            0      0.00%     52.84% # Number of instructions issued per FU type, per thread (Count)
system.cpu.statIssuedInstType_0::FloatDiv            0      0.00%     52.84% # Number of instructions issued per FU type, per thread (Count)
system.cpu.statIssuedInstType_0::FloatMisc            0      0.00%     52.84% # Number of instructions issued per FU type, per thread (Count)
system.cpu.statIssuedInstType_0::FloatSqrt            0      0.00%     52.84% # Number of instructions issued per FU type, per thread (Count)
system.cpu.statIssuedInstType_0::SimdAdd            0      0.00%     52.84% # Number of instructions issued per FU type, per thread (Count)
system.cpu.statIssuedInstType_0::SimdAddAcc            0      0.00%     52.84% # Number of instructions issued per FU type, per thread (Count)
system.cpu.statIssuedInstType_0::SimdAlu            0      0.00%     52.84% # Number of instructions issued per FU type, per thread (Count)
system.cpu.statIssuedInstType_0::SimdCmp            0      0.00%     52.84% # Number of instructions issued per FU type, per thread (Count)
system.cpu.statIssuedInstType_0::SimdCvt            0      0.00%     52.84% # Number of instructions issued per FU type, per thread (Count)
system.cpu.statIssuedInstType_0::SimdMisc            0      0.00%     52.84% # Number of instructions issued per FU type, per thread (Count)
system.cpu.statIssuedInstType_0::SimdMult            0      0.00%     52.84% # Number of instructions issued per FU type, per thread (Count)
system.cpu.statIssuedInstType_0::SimdMultAcc            0      0.00%     52.84% # Number of instructions issued per FU type, per thread (Count)
system.cpu.statIssuedInstType_0::SimdShift            0      0.00%     52.84% # Number of instructions issued per FU type, per thread (Count)
system.cpu.statIssuedInstType_0::SimdShiftAcc            0      0.00%     52.84% # Number of instructions issued per FU type, per thread (Count)
system.cpu.statIssuedInstType_0::SimdDiv            0      0.00%     52.84% # Number of instructions issued per FU type, per thread (Count)
system.cpu.statIssuedInstType_0::SimdSqrt            0      0.00%     52.84% # Number of instructions issued per FU type, per thread (Count)
system.cpu.statIssuedInstType_0::SimdFloatAdd            0      0.00%     52.84% # Number of instructions issued per FU type, per thread (Count)
system.cpu.statIssuedInstType_0::SimdFloatAlu            0      0.00%     52.84% # Number of instructions issued per FU type, per thread (Count)
system.cpu.statIssuedInstType_0::SimdFloatCmp            0      0.00%     52.84% # Number of instructions issued per FU type, per thread (Count)
system.cpu.statIssuedInstType_0::SimdFloatCvt            0      0.00%     52.84% # Number of instructions issued per FU type, per thread (Count)
system.cpu.statIssuedInstType_0::SimdFloatDiv            0      0.00%     52.84% # Number of instructions issued per FU type, per thread (Count)
system.cpu.statIssuedInstType_0::SimdFloatMisc            0      0.00%     52.84% # Number of instructions issued per FU type, per thread (Count)
system.cpu.statIssuedInstType_0::SimdFloatMult            0      0.00%     52.84% # Number of instructions issued per FU type, per thread (Count)
system.cpu.statIssuedInstType_0::SimdFloatMultAcc            0      0.00%     52.84% # Number of instructions issued per FU type, per thread (Count)
system.cpu.statIssuedInstType_0::SimdFloatSqrt            0      0.00%     52.84% # Number of instructions issued per FU type, per thread (Count)
system.cpu.statIssuedInstType_0::SimdReduceAdd            0      0.00%     52.84% # Number of instructions issued per FU type, per thread (Count)
system.cpu.statIssuedInstType_0::SimdReduceAlu            0      0.00%     52.84% # Number of instructions issued per FU type, per thread (Count)
system.cpu.statIssuedInstType_0::SimdReduceCmp            0      0.00%     52.84% # Number of instructions issued per FU type, per thread (Count)
system.cpu.statIssuedInstType_0::SimdFloatReduceAdd            0      0.00%     52.84% # Number of instructions issued per FU type, per thread (Count)
system.cpu.statIssuedInstType_0::SimdFloatReduceCmp            0      0.00%     52.84% # Number of instructions issued per FU type, per thread (Count)
system.cpu.statIssuedInstType_0::SimdAes            0      0.00%     52.84% # Number of instructions issued per FU type, per thread (Count)
system.cpu.statIssuedInstType_0::SimdAesMix            0      0.00%     52.84% # Number of instructions issued per FU type, per thread (Count)
system.cpu.statIssuedInstType_0::SimdSha1Hash            0      0.00%     52.84% # Number of instructions issued per FU type, per thread (Count)
system.cpu.statIssuedInstType_0::SimdSha1Hash2            0      0.00%     52.84% # Number of instructions issued per FU type, per thread (Count)
system.cpu.statIssuedInstType_0::SimdSha256Hash            0      0.00%     52.84% # Number of instructions issued per FU type, per thread (Count)
system.cpu.statIssuedInstType_0::SimdSha256Hash2            0      0.00%     52.84% # Number of instructions issued per FU type, per thread (Count)
system.cpu.statIssuedInstType_0::SimdShaSigma2            0      0.00%     52.84% # Number of instructions issued per FU type, per thread (Count)
system.cpu.statIssuedInstType_0::SimdShaSigma3            0      0.00%     52.84% # Number of instructions issued per FU type, per thread (Count)
system.cpu.statIssuedInstType_0::SimdPredAlu            0      0.00%     52.84% # Number of instructions issued per FU type, per thread (Count)
system.cpu.statIssuedInstType_0::MemRead      1987807      1.06%     53.90% # Number of instructions issued per FU type, per thread (Count)
system.cpu.statIssuedInstType_0::MemWrite     86766967     46.10%    100.00% # Number of instructions issued per FU type, per thread (Count)
system.cpu.statIssuedInstType_0::FloatMemRead            0      0.00%    100.00% # Number of instructions issued per FU type, per thread (Count)
system.cpu.statIssuedInstType_0::FloatMemWrite            0      0.00%    100.00% # Number of instructions issued per FU type, per thread (Count)
system.cpu.statIssuedInstType_0::IprAccess            0      0.00%    100.00% # Number of instructions issued per FU type, per thread (Count)
system.cpu.statIssuedInstType_0::InstPrefetch            0      0.00%    100.00% # Number of instructions issued per FU type, per thread (Count)
system.cpu.statIssuedInstType_0::total      188215858                       # Number of instructions issued per FU type, per thread (Count)
system.cpu.issueRate                         0.466079                       # Inst issue rate ((Count/Cycle))
system.cpu.fuBusy                               72197                       # FU busy when requested (Count)
system.cpu.fuBusyRate                        0.000384                       # FU busy rate (busy events/executed inst) ((Count/Count))
system.cpu.intInstQueueReads                780276792                       # Number of integer instruction queue reads (Count)
system.cpu.intInstQueueWrites               191330806                       # Number of integer instruction queue writes (Count)
system.cpu.intInstQueueWakeupAccesses       187481753                       # Number of integer instruction queue wakeup accesses (Count)
system.cpu.fpInstQueueReads                         0                       # Number of floating instruction queue reads (Count)
system.cpu.fpInstQueueWrites                        0                       # Number of floating instruction queue writes (Count)
system.cpu.fpInstQueueWakeupAccesses                0                       # Number of floating instruction queue wakeup accesses (Count)
system.cpu.vecInstQueueReads                        0                       # Number of vector instruction queue reads (Count)
system.cpu.vecInstQueueWrites                       0                       # Number of vector instruction queue writes (Count)
system.cpu.vecInstQueueWakeupAccesses               0                       # Number of vector instruction queue wakeup accesses (Count)
system.cpu.intAluAccesses                   188288051                       # Number of integer alu accesses (Count)
system.cpu.fpAluAccesses                            0                       # Number of floating point alu accesses (Count)
system.cpu.vecAluAccesses                           0                       # Number of vector alu accesses (Count)
system.cpu.idleCycles                               0                       # Number of cycles IEW is idle (Cycle)
system.cpu.squashCycles                         46171                       # Number of cycles IEW is squashing (Cycle)
system.cpu.blockCycles                         185542                       # Number of cycles IEW is blocking (Cycle)
system.cpu.unblockCycles                        17769                       # Number of cycles IEW is unblocking (Cycle)
system.cpu.dispatchedInsts                  188241323                       # Number of instructions dispatched to IQ (Count)
system.cpu.dispSquashedInsts                      469                       # Number of squashed instructions skipped by dispatch (Count)
system.cpu.dispLoadInsts                      1990774                       # Number of dispatched load instructions (Count)
system.cpu.dispStoreInsts                    86771738                       # Number of dispatched store instructions (Count)
system.cpu.dispNonSpecInsts                        73                       # Number of dispatched non-speculative instructions (Count)
system.cpu.iqFullEvents                           134                       # Number of times the IQ has become full, causing a stall (Count)
system.cpu.lsqFullEvents                        17334                       # Number of times the LSQ has become full, causing a stall (Count)
system.cpu.memOrderViolationEvents                176                       # Number of memory order violations (Count)
system.cpu.predictedTakenIncorrect                514                       # Number of branches that were predicted taken incorrectly (Count)
system.cpu.predictedNotTakenIncorrect            1844                       # Number of branches that were predicted not taken incorrectly (Count)
system.cpu.branchMispredicts                     2358                       # Number of branch mispredicts detected at execute (Count)
system.cpu.numInsts                         188212471                       # Number of executed instructions (Count)
system.cpu.numLoadInsts                       1986211                       # Number of load instructions executed (Count)
system.cpu.numSquashedInsts                      3383                       # Number of squashed instructions skipped in execute (Count)
system.cpu.numSwp                                   0                       # Number of swp insts executed (Count)
system.cpu.numNop                                   0                       # Number of nop insts executed (Count)
system.cpu.numRefs                           88752637                       # Number of memory reference insts executed (Count)
system.cpu.numBranches                       10869773                       # Number of branches executed (Count)
system.cpu.numStoreInsts                     86766426                       # Number of stores executed (Count)
system.cpu.numRate                           0.466070                       # Inst execution rate ((Count/Cycle))
system.cpu.instsToCommit                    188208242                       # Cumulative count of insts sent to commit (Count)
system.cpu.writebackCount                   187481753                       # Cumulative count of insts written-back (Count)
system.cpu.producerInst                      82405258                       # Number of instructions producing a value (Count)
system.cpu.consumerInst                     411178838                       # Number of instructions consuming a value (Count)
system.cpu.wbRate                            0.464261                       # Insts written-back per cycle ((Count/Cycle))
system.cpu.wbFanout                          0.200412                       # Average fanout of values written-back ((Count/Count))
system.cpu.timesIdled                             481                       # Number of times that the entire CPU went into an idle state and unscheduled itself (Count)
system.cpu.idleCycles                           55759                       # Total number of cycles that the CPU has spent unscheduled due to idling (Cycle)
system.cpu.committedInsts                   100000001                       # Number of Instructions Simulated (Count)
system.cpu.committedOps                     185151994                       # Number of Ops (including micro ops) Simulated (Count)
system.cpu.cpi                               4.038284                       # CPI: Cycles Per Instruction ((Cycle/Count))
system.cpu.totalCpi                          4.038284                       # CPI: Total CPI of All Threads ((Cycle/Count))
system.cpu.ipc                               0.247630                       # IPC: Instructions Per Cycle ((Count/Cycle))
system.cpu.totalIpc                          0.247630                       # IPC: Total IPC of All Threads ((Count/Cycle))
system.cpu.intRegfileReads                  265060016                       # Number of integer regfile reads (Count)
system.cpu.intRegfileWrites                  90316859                       # Number of integer regfile writes (Count)
system.cpu.vecRegfileReads                         16                       # number of vector regfile reads (Count)
system.cpu.ccRegfileReads                   570582999                       # number of cc regfile reads (Count)
system.cpu.ccRegfileWrites                  130606877                       # number of cc regfile writes (Count)
system.cpu.miscRegfileReads                 355918529                       # number of misc regfile reads (Count)
system.cpu.miscRegfileWrites                      137                       # number of misc regfile writes (Count)
system.cpu.MemDepUnit__0.insertedLoads        1990774                       # Number of loads inserted to the mem dependence unit. (Count)
system.cpu.MemDepUnit__0.insertedStores      86771738                       # Number of stores inserted to the mem dependence unit. (Count)
system.cpu.MemDepUnit__0.conflictingLoads       154726                       # Number of conflicting loads. (Count)
system.cpu.MemDepUnit__0.conflictingStores        25178                       # Number of conflicting stores. (Count)
system.cpu.MemDepUnit__1.insertedLoads              0                       # Number of loads inserted to the mem dependence unit. (Count)
system.cpu.MemDepUnit__1.insertedStores             0                       # Number of stores inserted to the mem dependence unit. (Count)
system.cpu.MemDepUnit__1.conflictingLoads            0                       # Number of conflicting loads. (Count)
system.cpu.MemDepUnit__1.conflictingStores            0                       # Number of conflicting stores. (Count)
system.cpu.MemDepUnit__2.insertedLoads              0                       # Number of loads inserted to the mem dependence unit. (Count)
system.cpu.MemDepUnit__2.insertedStores             0                       # Number of stores inserted to the mem dependence unit. (Count)
system.cpu.MemDepUnit__2.conflictingLoads            0                       # Number of conflicting loads. (Count)
system.cpu.MemDepUnit__2.conflictingStores            0                       # Number of conflicting stores. (Count)
system.cpu.MemDepUnit__3.insertedLoads              0                       # Number of loads inserted to the mem dependence unit. (Count)
system.cpu.MemDepUnit__3.insertedStores             0                       # Number of stores inserted to the mem dependence unit. (Count)
system.cpu.MemDepUnit__3.conflictingLoads            0                       # Number of conflicting loads. (Count)
system.cpu.MemDepUnit__3.conflictingStores            0                       # Number of conflicting stores. (Count)
system.cpu.branchPred.lookups                11052727                       # Number of BP lookups (Count)
system.cpu.branchPred.condPredicted          11040540                       # Number of conditional branches predicted (Count)
system.cpu.branchPred.condIncorrect              2455                       # Number of conditional branches incorrect (Count)
system.cpu.branchPred.BTBLookups             11038005                       # Number of BTB lookups (Count)
system.cpu.branchPred.BTBHits                11037173                       # Number of BTB hits (Count)
system.cpu.branchPred.BTBMissPct             0.000075                       # BTB Miss Percentage (Ratio)
system.cpu.branchPred.BTBHitRatio            0.999925                       # BTB Hit Ratio (Ratio)
system.cpu.branchPred.RASUsed                    3895                       # Number of times the RAS was used to get a target. (Count)
system.cpu.branchPred.RASIncorrect                 67                       # Number of incorrect RAS predictions. (Count)
system.cpu.branchPred.indirectLookups             607                       # Number of indirect predictor lookups. (Count)
system.cpu.branchPred.indirectHits                260                       # Number of indirect target hits. (Count)
system.cpu.branchPred.indirectMisses              347                       # Number of indirect misses. (Count)
system.cpu.branchPred.indirectMispredicted          173                       # Number of mispredicted indirect branches. (Count)
system.cpu.commit.commitSquashedInsts         1771144                       # The number of squashed insts skipped by commit (Count)
system.cpu.commit.commitNonSpecStalls              87                       # The number of times commit has been forced to stall to communicate backwards (Count)
system.cpu.commit.branchMispredicts              2055                       # The number of times a branch was mispredicted (Count)
system.cpu.commit.numCommittedDist::samples    403544303                       # Number of insts commited each cycle
system.cpu.commit.numCommittedDist::mean     0.458815                       # Number of insts commited each cycle
system.cpu.commit.numCommittedDist::stdev     1.262151                       # Number of insts commited each cycle
system.cpu.commit.numCommittedDist::underflows            0      0.00%      0.00% # Number of insts commited each cycle
system.cpu.commit.numCommittedDist::0       348607740     86.39%     86.39% # Number of insts commited each cycle
system.cpu.commit.numCommittedDist::1        10446412      2.59%     88.98% # Number of insts commited each cycle
system.cpu.commit.numCommittedDist::2         2612544      0.65%     89.62% # Number of insts commited each cycle
system.cpu.commit.numCommittedDist::3         7366488      1.83%     91.45% # Number of insts commited each cycle
system.cpu.commit.numCommittedDist::4        26301445      6.52%     97.97% # Number of insts commited each cycle
system.cpu.commit.numCommittedDist::5         7814426      1.94%     99.90% # Number of insts commited each cycle
system.cpu.commit.numCommittedDist::6            7638      0.00%     99.90% # Number of insts commited each cycle
system.cpu.commit.numCommittedDist::7           43588      0.01%     99.91% # Number of insts commited each cycle
system.cpu.commit.numCommittedDist::8          344022      0.09%    100.00% # Number of insts commited each cycle
system.cpu.commit.numCommittedDist::overflows            0      0.00%    100.00% # Number of insts commited each cycle
system.cpu.commit.numCommittedDist::min_value            0                       # Number of insts commited each cycle
system.cpu.commit.numCommittedDist::max_value            8                       # Number of insts commited each cycle
system.cpu.commit.numCommittedDist::total    403544303                       # Number of insts commited each cycle
system.cpu.commit.instsCommitted            100000001                       # Number of instructions committed (Count)
system.cpu.commit.opsCommitted              185151994                       # Number of ops (including micro ops) committed (Count)
system.cpu.commit.memRefs                    87286940                       # Number of memory references committed (Count)
system.cpu.commit.loads                       1972953                       # Number of loads committed (Count)
system.cpu.commit.amos                              0                       # Number of atomic instructions committed (Count)
system.cpu.commit.membars                          34                       # Number of memory barriers committed (Count)
system.cpu.commit.branches                   10690638                       # Number of branches committed (Count)
system.cpu.commit.vectorInstructions                0                       # Number of committed Vector instructions. (Count)
system.cpu.commit.floating                          0                       # Number of committed floating point instructions. (Count)
system.cpu.commit.integer                   174467004                       # Number of committed integer instructions. (Count)
system.cpu.commit.functionCalls                  2665                       # Number of function calls committed. (Count)
system.cpu.commit.committedInstType_0::No_OpClass            0      0.00%      0.00% # Class of committed instruction (Count)
system.cpu.commit.committedInstType_0::IntAlu     97864975     52.86%     52.86% # Class of committed instruction (Count)
system.cpu.commit.committedInstType_0::IntMult           79      0.00%     52.86% # Class of committed instruction (Count)
system.cpu.commit.committedInstType_0::IntDiv            0      0.00%     52.86% # Class of committed instruction (Count)
system.cpu.commit.committedInstType_0::FloatAdd            0      0.00%     52.86% # Class of committed instruction (Count)
system.cpu.commit.committedInstType_0::FloatCmp            0      0.00%     52.86% # Class of committed instruction (Count)
system.cpu.commit.committedInstType_0::FloatCvt            0      0.00%     52.86% # Class of committed instruction (Count)
system.cpu.commit.committedInstType_0::FloatMult            0      0.00%     52.86% # Class of committed instruction (Count)
system.cpu.commit.committedInstType_0::FloatMultAcc            0      0.00%     52.86% # Class of committed instruction (Count)
system.cpu.commit.committedInstType_0::FloatDiv            0      0.00%     52.86% # Class of committed instruction (Count)
system.cpu.commit.committedInstType_0::FloatMisc            0      0.00%     52.86% # Class of committed instruction (Count)
system.cpu.commit.committedInstType_0::FloatSqrt            0      0.00%     52.86% # Class of committed instruction (Count)
system.cpu.commit.committedInstType_0::SimdAdd            0      0.00%     52.86% # Class of committed instruction (Count)
system.cpu.commit.committedInstType_0::SimdAddAcc            0      0.00%     52.86% # Class of committed instruction (Count)
system.cpu.commit.committedInstType_0::SimdAlu            0      0.00%     52.86% # Class of committed instruction (Count)
system.cpu.commit.committedInstType_0::SimdCmp            0      0.00%     52.86% # Class of committed instruction (Count)
system.cpu.commit.committedInstType_0::SimdCvt            0      0.00%     52.86% # Class of committed instruction (Count)
system.cpu.commit.committedInstType_0::SimdMisc            0      0.00%     52.86% # Class of committed instruction (Count)
system.cpu.commit.committedInstType_0::SimdMult            0      0.00%     52.86% # Class of committed instruction (Count)
system.cpu.commit.committedInstType_0::SimdMultAcc            0      0.00%     52.86% # Class of committed instruction (Count)
system.cpu.commit.committedInstType_0::SimdShift            0      0.00%     52.86% # Class of committed instruction (Count)
system.cpu.commit.committedInstType_0::SimdShiftAcc            0      0.00%     52.86% # Class of committed instruction (Count)
system.cpu.commit.committedInstType_0::SimdDiv            0      0.00%     52.86% # Class of committed instruction (Count)
system.cpu.commit.committedInstType_0::SimdSqrt            0      0.00%     52.86% # Class of committed instruction (Count)
system.cpu.commit.committedInstType_0::SimdFloatAdd            0      0.00%     52.86% # Class of committed instruction (Count)
system.cpu.commit.committedInstType_0::SimdFloatAlu            0      0.00%     52.86% # Class of committed instruction (Count)
system.cpu.commit.committedInstType_0::SimdFloatCmp            0      0.00%     52.86% # Class of committed instruction (Count)
system.cpu.commit.committedInstType_0::SimdFloatCvt            0      0.00%     52.86% # Class of committed instruction (Count)
system.cpu.commit.committedInstType_0::SimdFloatDiv            0      0.00%     52.86% # Class of committed instruction (Count)
system.cpu.commit.committedInstType_0::SimdFloatMisc            0      0.00%     52.86% # Class of committed instruction (Count)
system.cpu.commit.committedInstType_0::SimdFloatMult            0      0.00%     52.86% # Class of committed instruction (Count)
system.cpu.commit.committedInstType_0::SimdFloatMultAcc            0      0.00%     52.86% # Class of committed instruction (Count)
system.cpu.commit.committedInstType_0::SimdFloatSqrt            0      0.00%     52.86% # Class of committed instruction (Count)
system.cpu.commit.committedInstType_0::SimdReduceAdd            0      0.00%     52.86% # Class of committed instruction (Count)
system.cpu.commit.committedInstType_0::SimdReduceAlu            0      0.00%     52.86% # Class of committed instruction (Count)
system.cpu.commit.committedInstType_0::SimdReduceCmp            0      0.00%     52.86% # Class of committed instruction (Count)
system.cpu.commit.committedInstType_0::SimdFloatReduceAdd            0      0.00%     52.86% # Class of committed instruction (Count)
system.cpu.commit.committedInstType_0::SimdFloatReduceCmp            0      0.00%     52.86% # Class of committed instruction (Count)
system.cpu.commit.committedInstType_0::SimdAes            0      0.00%     52.86% # Class of committed instruction (Count)
system.cpu.commit.committedInstType_0::SimdAesMix            0      0.00%     52.86% # Class of committed instruction (Count)
system.cpu.commit.committedInstType_0::SimdSha1Hash            0      0.00%     52.86% # Class of committed instruction (Count)
system.cpu.commit.committedInstType_0::SimdSha1Hash2            0      0.00%     52.86% # Class of committed instruction (Count)
system.cpu.commit.committedInstType_0::SimdSha256Hash            0      0.00%     52.86% # Class of committed instruction (Count)
system.cpu.commit.committedInstType_0::SimdSha256Hash2            0      0.00%     52.86% # Class of committed instruction (Count)
system.cpu.commit.committedInstType_0::SimdShaSigma2            0      0.00%     52.86% # Class of committed instruction (Count)
system.cpu.commit.committedInstType_0::SimdShaSigma3            0      0.00%     52.86% # Class of committed instruction (Count)
system.cpu.commit.committedInstType_0::SimdPredAlu            0      0.00%     52.86% # Class of committed instruction (Count)
system.cpu.commit.committedInstType_0::MemRead      1972953      1.07%     53.92% # Class of committed instruction (Count)
system.cpu.commit.committedInstType_0::MemWrite     85313987     46.08%    100.00% # Class of committed instruction (Count)
system.cpu.commit.committedInstType_0::FloatMemRead            0      0.00%    100.00% # Class of committed instruction (Count)
system.cpu.commit.committedInstType_0::FloatMemWrite            0      0.00%    100.00% # Class of committed instruction (Count)
system.cpu.commit.committedInstType_0::IprAccess            0      0.00%    100.00% # Class of committed instruction (Count)
system.cpu.commit.committedInstType_0::InstPrefetch            0      0.00%    100.00% # Class of committed instruction (Count)
system.cpu.commit.committedInstType_0::total    185151994                       # Class of committed instruction (Count)
system.cpu.commit.commitEligibleSamples        344022                       # number cycles where commit BW limit reached (Cycle)
system.cpu.dcache.demandHits::cpu.data        2917219                       # number of demand (read+write) hits (Count)
system.cpu.dcache.demandHits::total           2917219                       # number of demand (read+write) hits (Count)
system.cpu.dcache.overallHits::cpu.data       2917219                       # number of overall hits (Count)
system.cpu.dcache.overallHits::total          2917219                       # number of overall hits (Count)
system.cpu.dcache.demandMisses::cpu.data     84196151                       # number of demand (read+write) misses (Count)
system.cpu.dcache.demandMisses::total        84196151                       # number of demand (read+write) misses (Count)
system.cpu.dcache.overallMisses::cpu.data     84196151                       # number of overall misses (Count)
system.cpu.dcache.overallMisses::total       84196151                       # number of overall misses (Count)
system.cpu.dcache.demandMissLatency::cpu.data 5991337864953                       # number of demand (read+write) miss ticks (Tick)
system.cpu.dcache.demandMissLatency::total 5991337864953                       # number of demand (read+write) miss ticks (Tick)
system.cpu.dcache.overallMissLatency::cpu.data 5991337864953                       # number of overall miss ticks (Tick)
system.cpu.dcache.overallMissLatency::total 5991337864953                       # number of overall miss ticks (Tick)
system.cpu.dcache.demandAccesses::cpu.data     87113370                       # number of demand (read+write) accesses (Count)
system.cpu.dcache.demandAccesses::total      87113370                       # number of demand (read+write) accesses (Count)
system.cpu.dcache.overallAccesses::cpu.data     87113370                       # number of overall (read+write) accesses (Count)
system.cpu.dcache.overallAccesses::total     87113370                       # number of overall (read+write) accesses (Count)
system.cpu.dcache.demandMissRate::cpu.data     0.966512                       # miss rate for demand accesses (Ratio)
system.cpu.dcache.demandMissRate::total      0.966512                       # miss rate for demand accesses (Ratio)
system.cpu.dcache.overallMissRate::cpu.data     0.966512                       # miss rate for overall accesses (Ratio)
system.cpu.dcache.overallMissRate::total     0.966512                       # miss rate for overall accesses (Ratio)
system.cpu.dcache.demandAvgMissLatency::cpu.data 71159.284525                       # average overall miss latency ((Cycle/Count))
system.cpu.dcache.demandAvgMissLatency::total 71159.284525                       # average overall miss latency ((Cycle/Count))
system.cpu.dcache.overallAvgMissLatency::cpu.data 71159.284525                       # average overall miss latency ((Cycle/Count))
system.cpu.dcache.overallAvgMissLatency::total 71159.284525                       # average overall miss latency ((Cycle/Count))
system.cpu.dcache.blockedCycles::no_mshrs        15494                       # number of cycles access was blocked (Cycle)
system.cpu.dcache.blockedCycles::no_targets            0                       # number of cycles access was blocked (Cycle)
system.cpu.dcache.blockedCauses::no_mshrs          177                       # number of times access was blocked (Count)
system.cpu.dcache.blockedCauses::no_targets            0                       # number of times access was blocked (Count)
system.cpu.dcache.avgBlocked::no_mshrs      87.536723                       # average number of cycles each access was blocked ((Cycle/Count))
system.cpu.dcache.avgBlocked::no_targets          nan                       # average number of cycles each access was blocked ((Cycle/Count))
system.cpu.dcache.writebacks::writebacks      5323077                       # number of writebacks (Count)
system.cpu.dcache.writebacks::total           5323077                       # number of writebacks (Count)
system.cpu.dcache.demandMshrHits::cpu.data     78871706                       # number of demand (read+write) MSHR hits (Count)
system.cpu.dcache.demandMshrHits::total      78871706                       # number of demand (read+write) MSHR hits (Count)
system.cpu.dcache.overallMshrHits::cpu.data     78871706                       # number of overall MSHR hits (Count)
system.cpu.dcache.overallMshrHits::total     78871706                       # number of overall MSHR hits (Count)
system.cpu.dcache.demandMshrMisses::cpu.data      5324445                       # number of demand (read+write) MSHR misses (Count)
system.cpu.dcache.demandMshrMisses::total      5324445                       # number of demand (read+write) MSHR misses (Count)
system.cpu.dcache.overallMshrMisses::cpu.data      5324445                       # number of overall MSHR misses (Count)
system.cpu.dcache.overallMshrMisses::total      5324445                       # number of overall MSHR misses (Count)
system.cpu.dcache.demandMshrMissLatency::cpu.data 535296197971                       # number of demand (read+write) MSHR miss ticks (Tick)
system.cpu.dcache.demandMshrMissLatency::total 535296197971                       # number of demand (read+write) MSHR miss ticks (Tick)
system.cpu.dcache.overallMshrMissLatency::cpu.data 535296197971                       # number of overall MSHR miss ticks (Tick)
system.cpu.dcache.overallMshrMissLatency::total 535296197971                       # number of overall MSHR miss ticks (Tick)
system.cpu.dcache.demandMshrMissRate::cpu.data     0.061121                       # mshr miss ratio for demand accesses (Ratio)
system.cpu.dcache.demandMshrMissRate::total     0.061121                       # mshr miss ratio for demand accesses (Ratio)
system.cpu.dcache.overallMshrMissRate::cpu.data     0.061121                       # mshr miss ratio for overall accesses (Ratio)
system.cpu.dcache.overallMshrMissRate::total     0.061121                       # mshr miss ratio for overall accesses (Ratio)
system.cpu.dcache.demandAvgMshrMissLatency::cpu.data 100535.585957                       # average overall mshr miss latency ((Cycle/Count))
system.cpu.dcache.demandAvgMshrMissLatency::total 100535.585957                       # average overall mshr miss latency ((Cycle/Count))
system.cpu.dcache.overallAvgMshrMissLatency::cpu.data 100535.585957                       # average overall mshr miss latency ((Cycle/Count))
system.cpu.dcache.overallAvgMshrMissLatency::total 100535.585957                       # average overall mshr miss latency ((Cycle/Count))
system.cpu.dcache.replacements                5323420                       # number of replacements (Count)
system.cpu.dcache.LoadLockedReq.hits::cpu.data           41                       # number of LoadLockedReq hits (Count)
system.cpu.dcache.LoadLockedReq.hits::total           41                       # number of LoadLockedReq hits (Count)
system.cpu.dcache.LoadLockedReq.accesses::cpu.data           41                       # number of LoadLockedReq accesses(hits+misses) (Count)
system.cpu.dcache.LoadLockedReq.accesses::total           41                       # number of LoadLockedReq accesses(hits+misses) (Count)
system.cpu.dcache.ReadReq.hits::cpu.data      1799016                       # number of ReadReq hits (Count)
system.cpu.dcache.ReadReq.hits::total         1799016                       # number of ReadReq hits (Count)
system.cpu.dcache.ReadReq.misses::cpu.data          834                       # number of ReadReq misses (Count)
system.cpu.dcache.ReadReq.misses::total           834                       # number of ReadReq misses (Count)
system.cpu.dcache.ReadReq.missLatency::cpu.data     62592000                       # number of ReadReq miss ticks (Tick)
system.cpu.dcache.ReadReq.missLatency::total     62592000                       # number of ReadReq miss ticks (Tick)
system.cpu.dcache.ReadReq.accesses::cpu.data      1799850                       # number of ReadReq accesses(hits+misses) (Count)
system.cpu.dcache.ReadReq.accesses::total      1799850                       # number of ReadReq accesses(hits+misses) (Count)
system.cpu.dcache.ReadReq.missRate::cpu.data     0.000463                       # miss rate for ReadReq accesses (Ratio)
system.cpu.dcache.ReadReq.missRate::total     0.000463                       # miss rate for ReadReq accesses (Ratio)
system.cpu.dcache.ReadReq.avgMissLatency::cpu.data 75050.359712                       # average ReadReq miss latency ((Tick/Count))
system.cpu.dcache.ReadReq.avgMissLatency::total 75050.359712                       # average ReadReq miss latency ((Tick/Count))
system.cpu.dcache.ReadReq.mshrHits::cpu.data          437                       # number of ReadReq MSHR hits (Count)
system.cpu.dcache.ReadReq.mshrHits::total          437                       # number of ReadReq MSHR hits (Count)
system.cpu.dcache.ReadReq.mshrMisses::cpu.data          397                       # number of ReadReq MSHR misses (Count)
system.cpu.dcache.ReadReq.mshrMisses::total          397                       # number of ReadReq MSHR misses (Count)
system.cpu.dcache.ReadReq.mshrMissLatency::cpu.data     31665000                       # number of ReadReq MSHR miss ticks (Tick)
system.cpu.dcache.ReadReq.mshrMissLatency::total     31665000                       # number of ReadReq MSHR miss ticks (Tick)
system.cpu.dcache.ReadReq.mshrMissRate::cpu.data     0.000221                       # mshr miss rate for ReadReq accesses (Ratio)
system.cpu.dcache.ReadReq.mshrMissRate::total     0.000221                       # mshr miss rate for ReadReq accesses (Ratio)
system.cpu.dcache.ReadReq.avgMshrMissLatency::cpu.data 79760.705290                       # average ReadReq mshr miss latency ((Tick/Count))
system.cpu.dcache.ReadReq.avgMshrMissLatency::total 79760.705290                       # average ReadReq mshr miss latency ((Tick/Count))
system.cpu.dcache.StoreCondReq.hits::cpu.data           34                       # number of StoreCondReq hits (Count)
system.cpu.dcache.StoreCondReq.hits::total           34                       # number of StoreCondReq hits (Count)
system.cpu.dcache.StoreCondReq.accesses::cpu.data           34                       # number of StoreCondReq accesses(hits+misses) (Count)
system.cpu.dcache.StoreCondReq.accesses::total           34                       # number of StoreCondReq accesses(hits+misses) (Count)
system.cpu.dcache.WriteReq.hits::cpu.data      1118203                       # number of WriteReq hits (Count)
system.cpu.dcache.WriteReq.hits::total        1118203                       # number of WriteReq hits (Count)
system.cpu.dcache.WriteReq.misses::cpu.data     84195317                       # number of WriteReq misses (Count)
system.cpu.dcache.WriteReq.misses::total     84195317                       # number of WriteReq misses (Count)
system.cpu.dcache.WriteReq.missLatency::cpu.data 5991275272953                       # number of WriteReq miss ticks (Tick)
system.cpu.dcache.WriteReq.missLatency::total 5991275272953                       # number of WriteReq miss ticks (Tick)
system.cpu.dcache.WriteReq.accesses::cpu.data     85313520                       # number of WriteReq accesses(hits+misses) (Count)
system.cpu.dcache.WriteReq.accesses::total     85313520                       # number of WriteReq accesses(hits+misses) (Count)
system.cpu.dcache.WriteReq.missRate::cpu.data     0.986893                       # miss rate for WriteReq accesses (Ratio)
system.cpu.dcache.WriteReq.missRate::total     0.986893                       # miss rate for WriteReq accesses (Ratio)
system.cpu.dcache.WriteReq.avgMissLatency::cpu.data 71159.245982                       # average WriteReq miss latency ((Tick/Count))
system.cpu.dcache.WriteReq.avgMissLatency::total 71159.245982                       # average WriteReq miss latency ((Tick/Count))
system.cpu.dcache.WriteReq.mshrHits::cpu.data     78871269                       # number of WriteReq MSHR hits (Count)
system.cpu.dcache.WriteReq.mshrHits::total     78871269                       # number of WriteReq MSHR hits (Count)
system.cpu.dcache.WriteReq.mshrMisses::cpu.data      5324048                       # number of WriteReq MSHR misses (Count)
system.cpu.dcache.WriteReq.mshrMisses::total      5324048                       # number of WriteReq MSHR misses (Count)
system.cpu.dcache.WriteReq.mshrMissLatency::cpu.data 535264532971                       # number of WriteReq MSHR miss ticks (Tick)
system.cpu.dcache.WriteReq.mshrMissLatency::total 535264532971                       # number of WriteReq MSHR miss ticks (Tick)
system.cpu.dcache.WriteReq.mshrMissRate::cpu.data     0.062406                       # mshr miss rate for WriteReq accesses (Ratio)
system.cpu.dcache.WriteReq.mshrMissRate::total     0.062406                       # mshr miss rate for WriteReq accesses (Ratio)
system.cpu.dcache.WriteReq.avgMshrMissLatency::cpu.data 100537.135084                       # average WriteReq mshr miss latency ((Tick/Count))
system.cpu.dcache.WriteReq.avgMshrMissLatency::total 100537.135084                       # average WriteReq mshr miss latency ((Tick/Count))
system.cpu.dcache.power_state.pwrStateResidencyTicks::UNDEFINED 201914206500                       # Cumulative time (in ticks) in various power states (Tick)
system.cpu.dcache.tags.tagsInUse          1023.792279                       # Average ticks per tags in use ((Tick/Count))
system.cpu.dcache.tags.totalRefs              8241738                       # Total number of references to valid blocks. (Count)
system.cpu.dcache.tags.sampledRefs            5324444                       # Sample count of references to valid blocks. (Count)
system.cpu.dcache.tags.avgRefs               1.547906                       # Average number of references to valid blocks. ((Count/Count))
system.cpu.dcache.tags.warmupTick              161000                       # The tick when the warmup percentage was hit. (Tick)
system.cpu.dcache.tags.occupancies::cpu.data  1023.792279                       # Average occupied blocks per tick, per requestor ((Count/Tick))
system.cpu.dcache.tags.avgOccs::cpu.data     0.999797                       # Average percentage of cache occupancy ((Ratio/Tick))
system.cpu.dcache.tags.avgOccs::total        0.999797                       # Average percentage of cache occupancy ((Ratio/Tick))
system.cpu.dcache.tags.occupanciesTaskId::1024         1024                       # Occupied blocks per task id (Count)
system.cpu.dcache.tags.ageTaskId_1024::0          260                       # Occupied blocks per task id, per block age (Count)
system.cpu.dcache.tags.ageTaskId_1024::1          764                       # Occupied blocks per task id, per block age (Count)
system.cpu.dcache.tags.ratioOccsTaskId::1024            1                       # Ratio of occupied blocks and all blocks, per task id (Ratio)
system.cpu.dcache.tags.tagAccesses         1399139564                       # Number of tag accesses (Count)
system.cpu.dcache.tags.dataAccesses        1399139564                       # Number of data accesses (Count)
system.cpu.dcache.tags.power_state.pwrStateResidencyTicks::UNDEFINED 201914206500                       # Cumulative time (in ticks) in various power states (Tick)
system.cpu.decode.idleCycles                  5536673                       # Number of cycles decode is idle (Cycle)
system.cpu.decode.blockedCycles             374543877                       # Number of cycles decode is blocked (Cycle)
system.cpu.decode.runCycles                  12691282                       # Number of cycles decode is running (Cycle)
system.cpu.decode.unblockCycles              10954652                       # Number of cycles decode is unblocking (Cycle)
system.cpu.decode.squashCycles                  46171                       # Number of cycles decode is squashing (Cycle)
system.cpu.decode.branchResolved             10905305                       # Number of times decode resolved a branch (Count)
system.cpu.decode.branchMispred                   414                       # Number of times decode detected a branch misprediction (Count)
system.cpu.decode.decodedInsts              188920346                       # Number of instructions handled by decode (Count)
system.cpu.decode.squashedInsts                  1709                       # Number of squashed instructions handled by decode (Count)
system.cpu.fetch.icacheStallCycles             320317                       # Number of cycles fetch is stalled on an Icache miss (Cycle)
system.cpu.fetch.insts                      103165156                       # Number of instructions fetch has processed (Count)
system.cpu.fetch.branches                    11052727                       # Number of branches that fetch encountered (Count)
system.cpu.fetch.predictedBranches           11041328                       # Number of branches that fetch has predicted taken (Count)
system.cpu.fetch.cycles                     403405619                       # Number of cycles fetch has run and was not squashing or blocked (Cycle)
system.cpu.fetch.squashCycles                   93148                       # Number of cycles fetch has spent squashing (Cycle)
system.cpu.fetch.miscStallCycles                    9                       # Number of cycles fetch has spent waiting on interrupts, or bad addresses, or out of MSHRs (Cycle)
system.cpu.fetch.pendingTrapStallCycles            57                       # Number of stall cycles due to pending traps (Cycle)
system.cpu.fetch.icacheWaitRetryStallCycles           79                       # Number of stall cycles due to full MSHR (Cycle)
system.cpu.fetch.cacheLines                    305294                       # Number of cache lines fetched (Count)
system.cpu.fetch.icacheSquashes                  1309                       # Number of outstanding Icache misses that were squashed (Count)
system.cpu.fetch.nisnDist::samples          403772655                       # Number of instructions fetched each cycle (Total)
system.cpu.fetch.nisnDist::mean              0.473168                       # Number of instructions fetched each cycle (Total)
system.cpu.fetch.nisnDist::stdev             1.782057                       # Number of instructions fetched each cycle (Total)
system.cpu.fetch.nisnDist::underflows               0      0.00%      0.00% # Number of instructions fetched each cycle (Total)
system.cpu.fetch.nisnDist::0                370134160     91.67%     91.67% # Number of instructions fetched each cycle (Total)
system.cpu.fetch.nisnDist::1                  6997892      1.73%     93.40% # Number of instructions fetched each cycle (Total)
system.cpu.fetch.nisnDist::2                  1354579      0.34%     93.74% # Number of instructions fetched each cycle (Total)
system.cpu.fetch.nisnDist::3                  1407787      0.35%     94.09% # Number of instructions fetched each cycle (Total)
system.cpu.fetch.nisnDist::4                  1408360      0.35%     94.44% # Number of instructions fetched each cycle (Total)
system.cpu.fetch.nisnDist::5                  1376083      0.34%     94.78% # Number of instructions fetched each cycle (Total)
system.cpu.fetch.nisnDist::6                  1390421      0.34%     95.12% # Number of instructions fetched each cycle (Total)
system.cpu.fetch.nisnDist::7                  1361477      0.34%     95.46% # Number of instructions fetched each cycle (Total)
system.cpu.fetch.nisnDist::8                 18341896      4.54%    100.00% # Number of instructions fetched each cycle (Total)
system.cpu.fetch.nisnDist::overflows                0      0.00%    100.00% # Number of instructions fetched each cycle (Total)
system.cpu.fetch.nisnDist::min_value                0                       # Number of instructions fetched each cycle (Total)
system.cpu.fetch.nisnDist::max_value                8                       # Number of instructions fetched each cycle (Total)
system.cpu.fetch.nisnDist::total            403772655                       # Number of instructions fetched each cycle (Total)
system.cpu.fetch.branchRate                  0.027370                       # Number of branch fetches per cycle (Ratio)
system.cpu.fetch.rate                        0.255468                       # Number of inst fetches per cycle ((Count/Cycle))
system.cpu.icache.demandHits::cpu.inst         304215                       # number of demand (read+write) hits (Count)
system.cpu.icache.demandHits::total            304215                       # number of demand (read+write) hits (Count)
system.cpu.icache.overallHits::cpu.inst        304215                       # number of overall hits (Count)
system.cpu.icache.overallHits::total           304215                       # number of overall hits (Count)
system.cpu.icache.demandMisses::cpu.inst         1079                       # number of demand (read+write) misses (Count)
system.cpu.icache.demandMisses::total            1079                       # number of demand (read+write) misses (Count)
system.cpu.icache.overallMisses::cpu.inst         1079                       # number of overall misses (Count)
system.cpu.icache.overallMisses::total           1079                       # number of overall misses (Count)
system.cpu.icache.demandMissLatency::cpu.inst     78636498                       # number of demand (read+write) miss ticks (Tick)
system.cpu.icache.demandMissLatency::total     78636498                       # number of demand (read+write) miss ticks (Tick)
system.cpu.icache.overallMissLatency::cpu.inst     78636498                       # number of overall miss ticks (Tick)
system.cpu.icache.overallMissLatency::total     78636498                       # number of overall miss ticks (Tick)
system.cpu.icache.demandAccesses::cpu.inst       305294                       # number of demand (read+write) accesses (Count)
system.cpu.icache.demandAccesses::total        305294                       # number of demand (read+write) accesses (Count)
system.cpu.icache.overallAccesses::cpu.inst       305294                       # number of overall (read+write) accesses (Count)
system.cpu.icache.overallAccesses::total       305294                       # number of overall (read+write) accesses (Count)
system.cpu.icache.demandMissRate::cpu.inst     0.003534                       # miss rate for demand accesses (Ratio)
system.cpu.icache.demandMissRate::total      0.003534                       # miss rate for demand accesses (Ratio)
system.cpu.icache.overallMissRate::cpu.inst     0.003534                       # miss rate for overall accesses (Ratio)
system.cpu.icache.overallMissRate::total     0.003534                       # miss rate for overall accesses (Ratio)
system.cpu.icache.demandAvgMissLatency::cpu.inst 72879.052827                       # average overall miss latency ((Cycle/Count))
system.cpu.icache.demandAvgMissLatency::total 72879.052827                       # average overall miss latency ((Cycle/Count))
system.cpu.icache.overallAvgMissLatency::cpu.inst 72879.052827                       # average overall miss latency ((Cycle/Count))
system.cpu.icache.overallAvgMissLatency::total 72879.052827                       # average overall miss latency ((Cycle/Count))
system.cpu.icache.blockedCycles::no_mshrs          746                       # number of cycles access was blocked (Cycle)
system.cpu.icache.blockedCycles::no_targets            0                       # number of cycles access was blocked (Cycle)
system.cpu.icache.blockedCauses::no_mshrs           14                       # number of times access was blocked (Count)
system.cpu.icache.blockedCauses::no_targets            0                       # number of times access was blocked (Count)
system.cpu.icache.avgBlocked::no_mshrs      53.285714                       # average number of cycles each access was blocked ((Cycle/Count))
system.cpu.icache.avgBlocked::no_targets          nan                       # average number of cycles each access was blocked ((Cycle/Count))
system.cpu.icache.writebacks::writebacks          208                       # number of writebacks (Count)
system.cpu.icache.writebacks::total               208                       # number of writebacks (Count)
system.cpu.icache.demandMshrHits::cpu.inst          359                       # number of demand (read+write) MSHR hits (Count)
system.cpu.icache.demandMshrHits::total           359                       # number of demand (read+write) MSHR hits (Count)
system.cpu.icache.overallMshrHits::cpu.inst          359                       # number of overall MSHR hits (Count)
system.cpu.icache.overallMshrHits::total          359                       # number of overall MSHR hits (Count)
system.cpu.icache.demandMshrMisses::cpu.inst          720                       # number of demand (read+write) MSHR misses (Count)
system.cpu.icache.demandMshrMisses::total          720                       # number of demand (read+write) MSHR misses (Count)
system.cpu.icache.overallMshrMisses::cpu.inst          720                       # number of overall MSHR misses (Count)
system.cpu.icache.overallMshrMisses::total          720                       # number of overall MSHR misses (Count)
system.cpu.icache.demandMshrMissLatency::cpu.inst     58964999                       # number of demand (read+write) MSHR miss ticks (Tick)
system.cpu.icache.demandMshrMissLatency::total     58964999                       # number of demand (read+write) MSHR miss ticks (Tick)
system.cpu.icache.overallMshrMissLatency::cpu.inst     58964999                       # number of overall MSHR miss ticks (Tick)
system.cpu.icache.overallMshrMissLatency::total     58964999                       # number of overall MSHR miss ticks (Tick)
system.cpu.icache.demandMshrMissRate::cpu.inst     0.002358                       # mshr miss ratio for demand accesses (Ratio)
system.cpu.icache.demandMshrMissRate::total     0.002358                       # mshr miss ratio for demand accesses (Ratio)
system.cpu.icache.overallMshrMissRate::cpu.inst     0.002358                       # mshr miss ratio for overall accesses (Ratio)
system.cpu.icache.overallMshrMissRate::total     0.002358                       # mshr miss ratio for overall accesses (Ratio)
system.cpu.icache.demandAvgMshrMissLatency::cpu.inst 81895.831944                       # average overall mshr miss latency ((Cycle/Count))
system.cpu.icache.demandAvgMshrMissLatency::total 81895.831944                       # average overall mshr miss latency ((Cycle/Count))
system.cpu.icache.overallAvgMshrMissLatency::cpu.inst 81895.831944                       # average overall mshr miss latency ((Cycle/Count))
system.cpu.icache.overallAvgMshrMissLatency::total 81895.831944                       # average overall mshr miss latency ((Cycle/Count))
system.cpu.icache.replacements                    208                       # number of replacements (Count)
system.cpu.icache.ReadReq.hits::cpu.inst       304215                       # number of ReadReq hits (Count)
system.cpu.icache.ReadReq.hits::total          304215                       # number of ReadReq hits (Count)
system.cpu.icache.ReadReq.misses::cpu.inst         1079                       # number of ReadReq misses (Count)
system.cpu.icache.ReadReq.misses::total          1079                       # number of ReadReq misses (Count)
system.cpu.icache.ReadReq.missLatency::cpu.inst     78636498                       # number of ReadReq miss ticks (Tick)
system.cpu.icache.ReadReq.missLatency::total     78636498                       # number of ReadReq miss ticks (Tick)
system.cpu.icache.ReadReq.accesses::cpu.inst       305294                       # number of ReadReq accesses(hits+misses) (Count)
system.cpu.icache.ReadReq.accesses::total       305294                       # number of ReadReq accesses(hits+misses) (Count)
system.cpu.icache.ReadReq.missRate::cpu.inst     0.003534                       # miss rate for ReadReq accesses (Ratio)
system.cpu.icache.ReadReq.missRate::total     0.003534                       # miss rate for ReadReq accesses (Ratio)
system.cpu.icache.ReadReq.avgMissLatency::cpu.inst 72879.052827                       # average ReadReq miss latency ((Tick/Count))
system.cpu.icache.ReadReq.avgMissLatency::total 72879.052827                       # average ReadReq miss latency ((Tick/Count))
system.cpu.icache.ReadReq.mshrHits::cpu.inst          359                       # number of ReadReq MSHR hits (Count)
system.cpu.icache.ReadReq.mshrHits::total          359                       # number of ReadReq MSHR hits (Count)
system.cpu.icache.ReadReq.mshrMisses::cpu.inst          720                       # number of ReadReq MSHR misses (Count)
system.cpu.icache.ReadReq.mshrMisses::total          720                       # number of ReadReq MSHR misses (Count)
system.cpu.icache.ReadReq.mshrMissLatency::cpu.inst     58964999                       # number of ReadReq MSHR miss ticks (Tick)
system.cpu.icache.ReadReq.mshrMissLatency::total     58964999                       # number of ReadReq MSHR miss ticks (Tick)
system.cpu.icache.ReadReq.mshrMissRate::cpu.inst     0.002358                       # mshr miss rate for ReadReq accesses (Ratio)
system.cpu.icache.ReadReq.mshrMissRate::total     0.002358                       # mshr miss rate for ReadReq accesses (Ratio)
system.cpu.icache.ReadReq.avgMshrMissLatency::cpu.inst 81895.831944                       # average ReadReq mshr miss latency ((Tick/Count))
system.cpu.icache.ReadReq.avgMshrMissLatency::total 81895.831944                       # average ReadReq mshr miss latency ((Tick/Count))
system.cpu.icache.power_state.pwrStateResidencyTicks::UNDEFINED 201914206500                       # Cumulative time (in ticks) in various power states (Tick)
system.cpu.icache.tags.tagsInUse           485.032424                       # Average ticks per tags in use ((Tick/Count))
system.cpu.icache.tags.totalRefs               304935                       # Total number of references to valid blocks. (Count)
system.cpu.icache.tags.sampledRefs                720                       # Sample count of references to valid blocks. (Count)
system.cpu.icache.tags.avgRefs             423.520833                       # Average number of references to valid blocks. ((Count/Count))
system.cpu.icache.tags.warmupTick               87500                       # The tick when the warmup percentage was hit. (Tick)
system.cpu.icache.tags.occupancies::cpu.inst   485.032424                       # Average occupied blocks per tick, per requestor ((Count/Tick))
system.cpu.icache.tags.avgOccs::cpu.inst     0.947329                       # Average percentage of cache occupancy ((Ratio/Tick))
system.cpu.icache.tags.avgOccs::total        0.947329                       # Average percentage of cache occupancy ((Ratio/Tick))
system.cpu.icache.tags.occupanciesTaskId::1024          512                       # Occupied blocks per task id (Count)
system.cpu.icache.tags.ageTaskId_1024::4          512                       # Occupied blocks per task id, per block age (Count)
system.cpu.icache.tags.ratioOccsTaskId::1024            1                       # Ratio of occupied blocks and all blocks, per task id (Ratio)
system.cpu.icache.tags.tagAccesses            4885424                       # Number of tag accesses (Count)
system.cpu.icache.tags.dataAccesses           4885424                       # Number of data accesses (Count)
system.cpu.icache.tags.power_state.pwrStateResidencyTicks::UNDEFINED 201914206500                       # Cumulative time (in ticks) in various power states (Tick)
system.cpu.lsq0.forwLoads                      184216                       # Number of loads that had data forwarded from stores (Count)
system.cpu.lsq0.squashedLoads                   17821                       # Number of loads squashed (Count)
system.cpu.lsq0.ignoredResponses                   45                       # Number of memory responses ignored because the instruction is squashed (Count)
system.cpu.lsq0.memOrderViolation                 176                       # Number of memory ordering violations (Count)
system.cpu.lsq0.squashedStores                1457743                       # Number of stores squashed (Count)
system.cpu.lsq0.rescheduledLoads                  124                       # Number of loads that were rescheduled (Count)
system.cpu.lsq0.blockedByCache                    167                       # Number of times an access to memory failed due to the cache being blocked (Count)
system.cpu.lsq0.loadToUse::samples            1972953                       # Distribution of cycle latency between the first time a load is issued and its completion
system.cpu.lsq0.loadToUse::mean              3.487736                       # Distribution of cycle latency between the first time a load is issued and its completion
system.cpu.lsq0.loadToUse::stdev             4.770770                       # Distribution of cycle latency between the first time a load is issued and its completion
system.cpu.lsq0.loadToUse::0-9                1971148     99.91%     99.91% # Distribution of cycle latency between the first time a load is issued and its completion
system.cpu.lsq0.loadToUse::10-19                   40      0.00%     99.91% # Distribution of cycle latency between the first time a load is issued and its completion
system.cpu.lsq0.loadToUse::20-29                   48      0.00%     99.91% # Distribution of cycle latency between the first time a load is issued and its completion
system.cpu.lsq0.loadToUse::30-39                    5      0.00%     99.91% # Distribution of cycle latency between the first time a load is issued and its completion
system.cpu.lsq0.loadToUse::40-49                   16      0.00%     99.91% # Distribution of cycle latency between the first time a load is issued and its completion
system.cpu.lsq0.loadToUse::50-59                    3      0.00%     99.91% # Distribution of cycle latency between the first time a load is issued and its completion
system.cpu.lsq0.loadToUse::60-69                    6      0.00%     99.91% # Distribution of cycle latency between the first time a load is issued and its completion
system.cpu.lsq0.loadToUse::70-79                    4      0.00%     99.91% # Distribution of cycle latency between the first time a load is issued and its completion
system.cpu.lsq0.loadToUse::80-89                   16      0.00%     99.92% # Distribution of cycle latency between the first time a load is issued and its completion
system.cpu.lsq0.loadToUse::90-99                    5      0.00%     99.92% # Distribution of cycle latency between the first time a load is issued and its completion
system.cpu.lsq0.loadToUse::100-109                 70      0.00%     99.92% # Distribution of cycle latency between the first time a load is issued and its completion
system.cpu.lsq0.loadToUse::110-119                387      0.02%     99.94% # Distribution of cycle latency between the first time a load is issued and its completion
system.cpu.lsq0.loadToUse::120-129                533      0.03%     99.97% # Distribution of cycle latency between the first time a load is issued and its completion
system.cpu.lsq0.loadToUse::130-139                161      0.01%     99.97% # Distribution of cycle latency between the first time a load is issued and its completion
system.cpu.lsq0.loadToUse::140-149                155      0.01%     99.98% # Distribution of cycle latency between the first time a load is issued and its completion
system.cpu.lsq0.loadToUse::150-159                125      0.01%     99.99% # Distribution of cycle latency between the first time a load is issued and its completion
system.cpu.lsq0.loadToUse::160-169                 22      0.00%     99.99% # Distribution of cycle latency between the first time a load is issued and its completion
system.cpu.lsq0.loadToUse::170-179                 40      0.00%     99.99% # Distribution of cycle latency between the first time a load is issued and its completion
system.cpu.lsq0.loadToUse::180-189                 14      0.00%     99.99% # Distribution of cycle latency between the first time a load is issued and its completion
system.cpu.lsq0.loadToUse::190-199                 16      0.00%     99.99% # Distribution of cycle latency between the first time a load is issued and its completion
system.cpu.lsq0.loadToUse::200-209                 62      0.00%    100.00% # Distribution of cycle latency between the first time a load is issued and its completion
system.cpu.lsq0.loadToUse::210-219                 24      0.00%    100.00% # Distribution of cycle latency between the first time a load is issued and its completion
system.cpu.lsq0.loadToUse::220-229                  5      0.00%    100.00% # Distribution of cycle latency between the first time a load is issued and its completion
system.cpu.lsq0.loadToUse::230-239                  3      0.00%    100.00% # Distribution of cycle latency between the first time a load is issued and its completion
system.cpu.lsq0.loadToUse::250-259                  1      0.00%    100.00% # Distribution of cycle latency between the first time a load is issued and its completion
system.cpu.lsq0.loadToUse::260-269                  1      0.00%    100.00% # Distribution of cycle latency between the first time a load is issued and its completion
system.cpu.lsq0.loadToUse::280-289                  1      0.00%    100.00% # Distribution of cycle latency between the first time a load is issued and its completion
system.cpu.lsq0.loadToUse::290-299                  1      0.00%    100.00% # Distribution of cycle latency between the first time a load is issued and its completion
system.cpu.lsq0.loadToUse::overflows               41      0.00%    100.00% # Distribution of cycle latency between the first time a load is issued and its completion
system.cpu.lsq0.loadToUse::min_value                1                       # Distribution of cycle latency between the first time a load is issued and its completion
system.cpu.lsq0.loadToUse::max_value             1196                       # Distribution of cycle latency between the first time a load is issued and its completion
system.cpu.lsq0.loadToUse::total              1972953                       # Distribution of cycle latency between the first time a load is issued and its completion
system.cpu.mmu.dtb.instHits                         0                       # ITB inst hits (Count)
system.cpu.mmu.dtb.instMisses                       0                       # ITB inst misses (Count)
system.cpu.mmu.dtb.readHits                         0                       # DTB read hits (Count)
[...]
system.mem_ctrls.dram.perBankWrBursts::7       330690                       # Per bank write bursts (Count)
system.mem_ctrls.dram.perBankWrBursts::8       330841                       # Per bank write bursts (Count)
system.mem_ctrls.dram.perBankWrBursts::9       330762                       # Per bank write bursts (Count)
system.mem_ctrls.dram.perBankWrBursts::10       330808                       # Per bank write bursts (Count)
system.mem_ctrls.dram.perBankWrBursts::11       330822                       # Per bank write bursts (Count)
system.mem_ctrls.dram.perBankWrBursts::12       330827                       # Per bank write bursts (Count)
system.mem_ctrls.dram.perBankWrBursts::13       330703                       # Per bank write bursts (Count)
system.mem_ctrls.dram.perBankWrBursts::14       330624                       # Per bank write bursts (Count)
system.mem_ctrls.dram.perBankWrBursts::15       330624                       # Per bank write bursts (Count)
system.mem_ctrls.dram.totQLat            154749484750                       # Total ticks spent queuing (Tick)
system.mem_ctrls.dram.totBusLat           26625140000                       # Total ticks spent in databus transfers (Tick)
system.mem_ctrls.dram.totMemAccLat       254593759750                       # Total ticks spent from burst creation until serviced by the DRAM (Tick)
system.mem_ctrls.dram.avgQLat                29060.78                       # Average queueing delay per DRAM burst ((Tick/Count))
system.mem_ctrls.dram.avgBusLat               5000.00                       # Average bus latency per DRAM burst ((Tick/Count))
system.mem_ctrls.dram.avgMemAccLat           47810.78                       # Average memory access latency per DRAM burst ((Tick/Count))
system.mem_ctrls.dram.readRowHits             4865909                       # Number of row buffer hits during reads (Count)
system.mem_ctrls.dram.writeRowHits            4913289                       # Number of row buffer hits during writes (Count)
system.mem_ctrls.dram.readRowHitRate            91.38                       # Row buffer hit rate for reads (Ratio)
system.mem_ctrls.dram.writeRowHitRate           92.86                       # Row buffer hit rate for writes (Ratio)
system.mem_ctrls.dram.bytesPerActivate::samples       837110                       # Bytes accessed per row activation (Byte)
system.mem_ctrls.dram.bytesPerActivate::mean   811.653656                       # Bytes accessed per row activation (Byte)
system.mem_ctrls.dram.bytesPerActivate::gmean   658.391163                       # Bytes accessed per row activation (Byte)
system.mem_ctrls.dram.bytesPerActivate::stdev   337.674148                       # Bytes accessed per row activation (Byte)
system.mem_ctrls.dram.bytesPerActivate::0-127        35568      4.25%      4.25% # Bytes accessed per row activation (Byte)
system.mem_ctrls.dram.bytesPerActivate::128-255        91895     10.98%     15.23% # Bytes accessed per row activation (Byte)
system.mem_ctrls.dram.bytesPerActivate::256-383        24313      2.90%     18.13% # Bytes accessed per row activation (Byte)
system.mem_ctrls.dram.bytesPerActivate::384-511        12927      1.54%     19.68% # Bytes accessed per row activation (Byte)
system.mem_ctrls.dram.bytesPerActivate::512-639        18703      2.23%     21.91% # Bytes accessed per row activation (Byte)
system.mem_ctrls.dram.bytesPerActivate::640-767        21581      2.58%     24.49% # Bytes accessed per row activation (Byte)
system.mem_ctrls.dram.bytesPerActivate::768-895        22457      2.68%     27.17% # Bytes accessed per row activation (Byte)
system.mem_ctrls.dram.bytesPerActivate::896-1023       194233     23.20%     50.37% # Bytes accessed per row activation (Byte)
system.mem_ctrls.dram.bytesPerActivate::1024-1151       415433     49.63%    100.00% # Bytes accessed per row activation (Byte)
system.mem_ctrls.dram.bytesPerActivate::total       837110                       # Bytes accessed per row activation (Byte)
system.mem_ctrls.dram.bytesRead             340801792                       # Total number of bytes read from DRAM (Byte)
system.mem_ctrls.dram.bytesWritten          338641984                       # Total number of bytes written to DRAM (Byte)
system.mem_ctrls.dram.avgRdBW             1687.854450                       # Average DRAM read bandwidth in MiBytes/s ((Byte/Second))
system.mem_ctrls.dram.avgWrBW             1677.157788                       # Average DRAM write bandwidth in MiBytes/s ((Byte/Second))
system.mem_ctrls.dram.peakBW                 12800.00                       # Theoretical peak bandwidth in MiByte/s ((Byte/Second))
system.mem_ctrls.dram.busUtil                   26.29                       # Data bus utilization in percentage (Ratio)
system.mem_ctrls.dram.busUtilRead               13.19                       # Data bus utilization in percentage for reads (Ratio)
system.mem_ctrls.dram.busUtilWrite              13.10                       # Data bus utilization in percentage for writes (Ratio)
system.mem_ctrls.dram.pageHitRate               92.11                       # Row buffer hit rate, read and write combined (Ratio)
system.mem_ctrls.dram.power_state.pwrStateResidencyTicks::UNDEFINED 201914206500                       # Cumulative time (in ticks) in various power states (Tick)
system.mem_ctrls.dram.rank0.actEnergy      2988118560                       # Energy for activate commands per rank (pJ) (Joule)
system.mem_ctrls.dram.rank0.preEnergy      1588218885                       # Energy for precharge commands per rank (pJ) (Joule)
system.mem_ctrls.dram.rank0.readEnergy    19008129420                       # Energy for read commands per rank (pJ) (Joule)
system.mem_ctrls.dram.rank0.writeEnergy   13808309400                       # Energy for write commands per rank (pJ) (Joule)
system.mem_ctrls.dram.rank0.refreshEnergy 15938844480.000002                       # Energy for refresh commands per rank (pJ) (Joule)
system.mem_ctrls.dram.rank0.actBackEnergy  51432728490                       # Energy for active background per rank (pJ) (Joule)
system.mem_ctrls.dram.rank0.preBackEnergy  34223284320                       # Energy for precharge background per rank (pJ) (Joule)
system.mem_ctrls.dram.rank0.actPowerDownEnergy            0                       # Energy for active power-down per rank (pJ) (Joule)
system.mem_ctrls.dram.rank0.prePowerDownEnergy            0                       # Energy for precharge power-down per rank (pJ) (Joule)
system.mem_ctrls.dram.rank0.selfRefreshEnergy            0                       # Energy for self refresh per rank (pJ) (Joule)
system.mem_ctrls.dram.rank0.totalEnergy  138987633555                       # Total energy per rank (pJ) (Joule)
system.mem_ctrls.dram.rank0.averagePower   688.349948                       # Core power per rank (mW) (Watt)
system.mem_ctrls.dram.rank0.totalIdleTime            0                       # Total Idle time Per DRAM Rank (Tick)
system.mem_ctrls.dram.rank0.pwrStateTime::IDLE  86801462750                       # Time in different power states (Tick)
system.mem_ctrls.dram.rank0.pwrStateTime::REF   6742320000                       # Time in different power states (Tick)
system.mem_ctrls.dram.rank0.pwrStateTime::SREF            0                       # Time in different power states (Tick)
system.mem_ctrls.dram.rank0.pwrStateTime::PRE_PDN            0                       # Time in different power states (Tick)
system.mem_ctrls.dram.rank0.pwrStateTime::ACT 108370423750                       # Time in different power states (Tick)
system.mem_ctrls.dram.rank0.pwrStateTime::ACT_PDN            0                       # Time in different power states (Tick)
system.mem_ctrls.dram.rank1.actEnergy      2988853980                       # Energy for activate commands per rank (pJ) (Joule)
system.mem_ctrls.dram.rank1.preEnergy      1588613565                       # Energy for precharge commands per rank (pJ) (Joule)
system.mem_ctrls.dram.rank1.readEnergy    19012570500                       # Energy for read commands per rank (pJ) (Joule)
system.mem_ctrls.dram.rank1.writeEnergy   13812177420                       # Energy for write commands per rank (pJ) (Joule)
system.mem_ctrls.dram.rank1.refreshEnergy 15938844480.000002                       # Energy for refresh commands per rank (pJ) (Joule)
system.mem_ctrls.dram.rank1.actBackEnergy  51530540490                       # Energy for active background per rank (pJ) (Joule)
system.mem_ctrls.dram.rank1.preBackEnergy  34140916320                       # Energy for precharge background per rank (pJ) (Joule)
system.mem_ctrls.dram.rank1.actPowerDownEnergy            0                       # Energy for active power-down per rank (pJ) (Joule)
system.mem_ctrls.dram.rank1.prePowerDownEnergy            0                       # Energy for precharge power-down per rank (pJ) (Joule)
system.mem_ctrls.dram.rank1.selfRefreshEnergy            0                       # Energy for self refresh per rank (pJ) (Joule)
system.mem_ctrls.dram.rank1.totalEnergy  139012516755                       # Total energy per rank (pJ) (Joule)
system.mem_ctrls.dram.rank1.averagePower   688.473185                       # Core power per rank (mW) (Watt)
system.mem_ctrls.dram.rank1.totalIdleTime            0                       # Total Idle time Per DRAM Rank (Tick)
system.mem_ctrls.dram.rank1.pwrStateTime::IDLE  86589543500                       # Time in different power states (Tick)
system.mem_ctrls.dram.rank1.pwrStateTime::REF   6742320000                       # Time in different power states (Tick)
system.mem_ctrls.dram.rank1.pwrStateTime::SREF            0                       # Time in different power states (Tick)
system.mem_ctrls.dram.rank1.pwrStateTime::PRE_PDN            0                       # Time in different power states (Tick)
system.mem_ctrls.dram.rank1.pwrStateTime::ACT 108582343000                       # Time in different power states (Tick)
system.mem_ctrls.dram.rank1.pwrStateTime::ACT_PDN            0                       # Time in different power states (Tick)
system.mem_ctrls.power_state.pwrStateResidencyTicks::UNDEFINED 201914206500                       # Cumulative time (in ticks) in various power states (Tick)
system.membus.transDist::ReadResp                 990                       # Transaction distribution (Count)
system.membus.transDist::WritebackDirty       5291303                       # Transaction distribution (Count)
system.membus.transDist::CleanEvict               423                       # Transaction distribution (Count)
system.membus.transDist::ReadExReq            5324038                       # Transaction distribution (Count)
system.membus.transDist::ReadExResp           5324038                       # Transaction distribution (Count)
system.membus.transDist::ReadSharedReq            990                       # Transaction distribution (Count)
system.membus.pktCount_system.l2.mem_side_port::system.mem_ctrls.port     15941782                       # Packet count per connected requestor and responder (Count)
system.membus.pktCount::total                15941782                       # Packet count per connected requestor and responder (Count)
system.membus.pktSize_system.l2.mem_side_port::system.mem_ctrls.port    679445184                       # Cumulative packet size per connected requestor and responder (Byte)
system.membus.pktSize::total                679445184                       # Cumulative packet size per connected requestor and responder (Byte)
system.membus.snoops                                0                       # Total snoops (Count)
system.membus.snoopTraffic                          0                       # Total snoop traffic (Byte)
system.membus.snoopFanout::samples            5325028                       # Request fanout histogram (Count)
system.membus.snoopFanout::mean                     0                       # Request fanout histogram (Count)
system.membus.snoopFanout::stdev                    0                       # Request fanout histogram (Count)
system.membus.snoopFanout::underflows               0      0.00%      0.00% # Request fanout histogram (Count)
system.membus.snoopFanout::0                  5325028    100.00%    100.00% # Request fanout histogram (Count)
system.membus.snoopFanout::1                        0      0.00%    100.00% # Request fanout histogram (Count)
system.membus.snoopFanout::overflows                0      0.00%    100.00% # Request fanout histogram (Count)
system.membus.snoopFanout::min_value                0                       # Request fanout histogram (Count)
system.membus.snoopFanout::max_value                0                       # Request fanout histogram (Count)
system.membus.snoopFanout::total              5325028                       # Request fanout histogram (Count)
system.membus.power_state.pwrStateResidencyTicks::UNDEFINED 201914206500                       # Cumulative time (in ticks) in various power states (Tick)
system.membus.reqLayer0.occupancy         33485327000                       # Layer occupancy (ticks) (Tick)
system.membus.reqLayer0.utilization               0.2                       # Layer utilization (Ratio)
system.membus.respLayer1.occupancy        27406651750                       # Layer occupancy (ticks) (Tick)
system.membus.respLayer1.utilization              0.1                       # Layer utilization (Ratio)
system.membus.snoop_filter.totRequests       10616754                       # Total number of requests made to the snoop filter. (Count)
system.membus.snoop_filter.hitSingleRequests      5291747                       # Number of requests hitting in the snoop filter with a single holder of the requested data. (Count)
system.membus.snoop_filter.hitMultiRequests            0                       # Number of requests hitting in the snoop filter with multiple (>1) holders of the requested data. (Count)
system.membus.snoop_filter.totSnoops                0                       # Total number of snoops made to the snoop filter. (Count)
system.membus.snoop_filter.hitSingleSnoops            0                       # Number of snoops hitting in the snoop filter with a single holder of the requested data. (Count)
system.membus.snoop_filter.hitMultiSnoops            0                       # Number of snoops hitting in the snoop filter with multiple (>1) holders of the requested data. (Count)
system.tol2bus.transDist::ReadResp               1116                       # Transaction distribution (Count)
system.tol2bus.transDist::WritebackDirty     10614381                       # Transaction distribution (Count)
system.tol2bus.transDist::WritebackClean          208                       # Transaction distribution (Count)
system.tol2bus.transDist::CleanEvict             1482                       # Transaction distribution (Count)
system.tol2bus.transDist::ReadExReq           5324049                       # Transaction distribution (Count)
system.tol2bus.transDist::ReadExResp          5324048                       # Transaction distribution (Count)
system.tol2bus.transDist::ReadCleanReq            720                       # Transaction distribution (Count)
system.tol2bus.transDist::ReadSharedReq           396                       # Transaction distribution (Count)
system.tol2bus.pktCount_system.cpu.icache.mem_side_port::system.l2.cpu_side_port         1648                       # Packet count per connected requestor and responder (Count)
system.tol2bus.pktCount_system.cpu.dcache.mem_side_port::system.l2.cpu_side_port     15972309                       # Packet count per connected requestor and responder (Count)
system.tol2bus.pktCount::total               15973957                       # Packet count per connected requestor and responder (Count)
system.tol2bus.pktSize_system.cpu.icache.mem_side_port::system.l2.cpu_side_port        59392                       # Cumulative packet size per connected requestor and responder (Byte)
system.tol2bus.pktSize_system.cpu.dcache.mem_side_port::system.l2.cpu_side_port    681441344                       # Cumulative packet size per connected requestor and responder (Byte)
system.tol2bus.pktSize::total               681500736                       # Cumulative packet size per connected requestor and responder (Byte)
system.tol2bus.snoops                         5292443                       # Total snoops (Count)
system.tol2bus.snoopTraffic                 338643456                       # Total snoop traffic (Byte)
system.tol2bus.snoopFanout::samples          10617608                       # Request fanout histogram (Count)
system.tol2bus.snoopFanout::mean             0.000077                       # Request fanout histogram (Count)
system.tol2bus.snoopFanout::stdev            0.008782                       # Request fanout histogram (Count)
system.tol2bus.snoopFanout::underflows              0      0.00%      0.00% # Request fanout histogram (Count)
system.tol2bus.snoopFanout::0                10616789     99.99%     99.99% # Request fanout histogram (Count)
system.tol2bus.snoopFanout::1                     819      0.01%    100.00% # Request fanout histogram (Count)
system.tol2bus.snoopFanout::2                       0      0.00%    100.00% # Request fanout histogram (Count)
system.tol2bus.snoopFanout::overflows               0      0.00%    100.00% # Request fanout histogram (Count)
system.tol2bus.snoopFanout::min_value               0                       # Request fanout histogram (Count)
system.tol2bus.snoopFanout::max_value               1                       # Request fanout histogram (Count)
system.tol2bus.snoopFanout::total            10617608                       # Request fanout histogram (Count)
system.tol2bus.power_state.pwrStateResidencyTicks::UNDEFINED 201914206500                       # Cumulative time (in ticks) in various power states (Tick)
system.tol2bus.reqLayer0.occupancy        10647681500                       # Layer occupancy (ticks) (Tick)
system.tol2bus.reqLayer0.utilization              0.1                       # Layer utilization (Ratio)
system.tol2bus.respLayer0.occupancy           1080998                       # Layer occupancy (ticks) (Tick)
system.tol2bus.respLayer0.utilization             0.0                       # Layer utilization (Ratio)
system.tol2bus.respLayer1.occupancy        7986670990                       # Layer occupancy (ticks) (Tick)
system.tol2bus.respLayer1.utilization             0.0                       # Layer utilization (Ratio)
system.tol2bus.snoop_filter.totRequests      10648793                       # Total number of requests made to the snoop filter. (Count)
system.tol2bus.snoop_filter.hitSingleRequests      5323628                       # Number of requests hitting in the snoop filter with a single holder of the requested data. (Count)
system.tol2bus.snoop_filter.hitMultiRequests          103                       # Number of requests hitting in the snoop filter with multiple (>1) holders of the requested data. (Count)
system.tol2bus.snoop_filter.totSnoops             716                       # Total number of snoops made to the snoop filter. (Count)
system.tol2bus.snoop_filter.hitSingleSnoops          716                       # Number of snoops hitting in the snoop filter with a single holder of the requested data. (Count)
system.tol2bus.snoop_filter.hitMultiSnoops            0                       # Number of snoops hitting in the snoop filter with multiple (>1) holders of the requested data. (Count)
system.voltage_domain.voltage                       1                       # Voltage in Volts (Volt)
system.workload.inst.arm                            0                       # number of arm instructions executed (Count)
system.workload.inst.quiesce                        0                       # number of quiesce instructions executed (Count)

---------- End Simulation Statistics   ----------
