
---------- Begin Simulation Statistics ----------
simSeconds                                   0.201216                       # Number of seconds simulated (Second)
simTicks                                 201216289500                       # Number of ticks simulated (Tick)
finalTick                                201216289500                       # Number of ticks from beginning of simulation (restored from checkpoints and never reset) (Tick)
simFreq                                  1000000000000                       # The number of ticks per simulated second ((Tick/Second))
hostSeconds                                   1409.23                       # Real time elapsed on the host (Second)
hostTickRate                                142784165                       # The number of ticks simulated per host second (ticks/s) ((Tick/Second))
hostMemory                                     748012                       # Number of bytes of host memory used (Byte)
simInsts                                    100000001                       # Number of instructions simulated (Count)
simOps                                      185151994                       # Number of ops (including micro ops) simulated (Count)
hostInstRate                                    70961                       # Simulator instruction rate (inst/s) ((Count/Second))
hostOpRate                                     131385                       # Simulator op (including micro ops) rate (op/s) ((Count/Second))
system.clk_domain.clock                          1000                       # Clock period in ticks (Tick)
system.cpu.numCycles                        402432580                       # Number of cpu cycles simulated (Cycle)
system.cpu.numWorkItemsStarted                      0                       # Number of work items this cpu started (Count)
system.cpu.numWorkItemsCompleted                    0                       # Number of work items this cpu completed (Count)
system.cpu.instsAdded                       188241209                       # Number of instructions added to the IQ (excludes non-spec) (Count)
system.cpu.nonSpecInstsAdded                      107                       # Number of non-speculative instructions added to the IQ (Count)
system.cpu.instsIssued                      188215847                       # Number of instructions issued (Count)
system.cpu.squashedInstsIssued                    214                       # Number of squashed instructions issued (Count)
system.cpu.squashedInstsExamined              3089303                       # Number of squashed instructions iterated over during squash; mainly for profiling (Count)
system.cpu.squashedOperandsExamined           4263700                       # Number of squashed operands that are examined and possibly removed from graph (Count)
system.cpu.squashedNonSpecRemoved                  20                       # Number of squashed non-spec instructions that were removed (Count)
system.cpu.numIssuedDist::samples           402375347                       # Number of insts issued each cycle (Count)
system.cpu.numIssuedDist::mean               0.467762                       # Number of insts issued each cycle (Count)
system.cpu.numIssuedDist::stdev              1.263258                       # Number of insts issued each cycle (Count)
system.cpu.numIssuedDist::underflows                0      0.00%      0.00% # Number of insts issued each cycle (Count)
system.cpu.numIssuedDist::0                 346047602     86.00%     86.00% # Number of insts issued each cycle (Count)
system.cpu.numIssuedDist::1                  11472089      2.85%     88.85% # Number of insts issued each cycle (Count)
system.cpu.numIssuedDist::2                   1153516      0.29%     89.14% # Number of insts issued each cycle (Count)
system.cpu.numIssuedDist::3                   8920426      2.22%     91.36% # Number of insts issued each cycle (Count)
system.cpu.numIssuedDist::4                  26376818      6.56%     97.91% # Number of insts issued each cycle (Count)
system.cpu.numIssuedDist::5                   8289302      2.06%     99.97% # Number of insts issued each cycle (Count)
system.cpu.numIssuedDist::6                     87906      0.02%     99.99% # Number of insts issued each cycle (Count)
system.cpu.numIssuedDist::7                     27274      0.01%    100.00% # Number of insts issued each cycle (Count)
system.cpu.numIssuedDist::8                       414      0.00%    100.00% # Number of insts issued each cycle (Count)
system.cpu.numIssuedDist::overflows                 0      0.00%    100.00% # Number of insts issued each cycle (Count)
system.cpu.numIssuedDist::min_value                 0                       # Number of insts issued each cycle (Count)
system.cpu.numIssuedDist::max_value                 8                       # Number of insts issued each cycle (Count)
system.cpu.numIssuedDist::total             402375347                       # Number of insts issued each cycle (Count)
system.cpu.statFuBusy::No_OpClass                   0      0.00%      0.00% # attempts to use FU when none available (Count)
system.cpu.statFuBusy::IntAlu                     127      0.18%      0.18% # attempts to use FU when none available (Count)
system.cpu.statFuBusy::IntMult                      0      0.00%      0.18% # attempts to use FU when none available (Count)
system.cpu.statFuBusy::IntDiv                       0      0.00%      0.18% # attempts to use FU when none available (Count)
system.cpu.statFuBusy::FloatAdd                     0      0.00%      0.18% # attempts to use FU when none available (Count)
system.cpu.statFuBusy::FloatCmp                     0      0.00%      0.18% # attempts to use FU when none available (Count)
system.cpu.statFuBusy::FloatCvt                     0      0.00%      0.18% # attempts to use FU when none available (Count)
system.cpu.statFuBusy::FloatMult                    0      0.00%      0.18% # attempts to use FU when none available (Count)
system.cpu.statFuBusy::FloatMultAcc                 0      0.00%      0.18% # attempts to use FU when none available (Count)
system.cpu.statFuBusy::FloatDiv                     0      0.00%      0.18% # attempts to use FU when none available (Count)
system.cpu.statFuBusy::FloatMisc                    0      0.00%      0.18% # attempts to use FU when none available (Count)
system.cpu.statFuBusy::FloatSqrt                    0      0.00%      0.18% # attempts to use FU when none available (Count)
system.cpu.statFuBusy::SimdAdd                      0      0.00%      0.18% # attempts to use FU when none available (Count)
system.cpu.statFuBusy::SimdAddAcc                   0      0.00%      0.18% # attempts to use FU when none available (Count)
system.cpu.statFuBusy::SimdAlu                      0      0.00%      0.18% # attempts to use FU when none available (Count)
system.cpu.statFuBusy::SimdCmp                      0      0.00%      0.18% # attempts to use FU when none available (Count)
system.cpu.statFuBusy::SimdCvt                      0      0.00%      0.18% # attempts to use FU when none available (Count)
system.cpu.statFuBusy::SimdMisc                     0      0.00%      0.18% # attempts to use FU when none available (Count)
system.cpu.statFuBusy::SimdMult                     0      0.00%      0.18% # attempts to use FU when none available (Count)
system.cpu.statFuBusy::SimdMultAcc                  0      0.00%      0.18% # attempts to use FU when none available (Count)
system.cpu.statFuBusy::SimdShift                    0      0.00%      0.18% # attempts to use FU when none available (Count)
system.cpu.statFuBusy::SimdShiftAcc                 0      0.00%      0.18% # attempts to use FU when none available (Count)
system.cpu.statFuBusy::SimdDiv                      0      0.00%      0.18% # attempts to use FU when none available (Count)
system.cpu.statFuBusy::SimdSqrt                     0      0.00%      0.18% # attempts to use FU when none available (Count)
system.cpu.statFuBusy::SimdFloatAdd                 0      0.00%      0.18% # attempts to use FU when none available (Count)
system.cpu.statFuBusy::SimdFloatAlu                 0      0.00%      0.18% # attempts to use FU when none available (Count)
system.cpu.statFuBusy::SimdFloatCmp                 0      0.00%      0.18% # attempts to use FU when none available (Count)
system.cpu.statFuBusy::SimdFloatCvt                 0      0.00%      0.18% # attempts to use FU when none available (Count)
system.cpu.statFuBusy::SimdFloatDiv                 0      0.00%      0.18% # attempts to use FU when none available (Count)
system.cpu.statFuBusy::SimdFloatMisc                0      0.00%      0.18% # attempts to use FU when none available (Count)
system.cpu.statFuBusy::SimdFloatMult                0      0.00%      0.18% # attempts to use FU when none available (Count)
system.cpu.statFuBusy::SimdFloatMultAcc             0      0.00%      0.18% # attempts to use FU when none available (Count)
system.cpu.statFuBusy::SimdFloatSqrt                0      0.00%      0.18% # attempts to use FU when none available (Count)
system.cpu.statFuBusy::SimdReduceAdd                0      0.00%      0.18% # attempts to use FU when none available (Count)
system.cpu.statFuBusy::SimdReduceAlu                0      0.00%      0.18% # attempts to use FU when none available (Count)
system.cpu.statFuBusy::SimdReduceCmp                0      0.00%      0.18% # attempts to use FU when none available (Count)
system.cpu.statFuBusy::SimdFloatReduceAdd            0      0.00%      0.18% # attempts to use FU when none available (Count)
system.cpu.statFuBusy::SimdFloatReduceCmp            0      0.00%      0.18% # attempts to use FU when none available (Count)
system.cpu.statFuBusy::SimdAes                      0      0.00%      0.18% # attempts to use FU when none available (Count)
system.cpu.statFuBusy::SimdAesMix                   0      0.00%      0.18% # attempts to use FU when none available (Count)
system.cpu.statFuBusy::SimdSha1Hash                 0      0.00%      0.18% # attempts to use FU when none available (Count)
system.cpu.statFuBusy::SimdSha1Hash2                0      0.00%      0.18% # attempts to use FU when none available (Count)
system.cpu.statFuBusy::SimdSha256Hash               0      0.00%      0.18% # attempts to use FU when none available (Count)
system.cpu.statFuBusy::SimdSha256Hash2              0      0.00%      0.18% # attempts to use FU when none available (Count)
system.cpu.statFuBusy::SimdShaSigma2                0      0.00%      0.18% # attempts to use FU when none available (Count)
system.cpu.statFuBusy::SimdShaSigma3                0      0.00%      0.18% # attempts to use FU when none available (Count)
system.cpu.statFuBusy::SimdPredAlu                  0      0.00%      0.18% # attempts to use FU when none available (Count)
system.cpu.statFuBusy::MemRead                  71267     98.71%     98.89% # attempts to use FU when none available (Count)
system.cpu.statFuBusy::MemWrite                   804      1.11%    100.00% # attempts to use FU when none available (Count)
system.cpu.statFuBusy::FloatMemRead                 0      0.00%    100.00% # attempts to use FU when none available (Count)
system.cpu.statFuBusy::FloatMemWrite                0      0.00%    100.00% # attempts to use FU when none available (Count)
system.cpu.statFuBusy::IprAccess                    0      0.00%    100.00% # attempts to use FU when none available (Count)
system.cpu.statFuBusy::InstPrefetch                 0      0.00%    100.00% # attempts to use FU when none available (Count)
system.cpu.statIssuedInstType_0::No_OpClass            4      0.00%      0.00% # Number of instructions issued per FU type, per thread (Count)
system.cpu.statIssuedInstType_0::IntAlu      99460987     52.84%     52.84% # Number of instructions issued per FU type, per thread (Count)
system.cpu.statIssuedInstType_0::IntMult           81      0.00%     52.84% # Number of instructions issued per FU type, per thread (Count)
system.cpu.statIssuedInstType_0::IntDiv             0      0.00%     52.84% # Number of instructions issued per FU type, per thread (Count)
system.cpu.statIssuedInstType_0::FloatAdd            0      0.00%     52.84% # Number of instructions issued per FU type, per thread (Count)
system.cpu.statIssuedInstType_0::FloatCmp            0      0.00%     52.84% # Number of instructions issued per FU type, per thread (Count)
system.cpu.statIssuedInstType_0::FloatCvt            0      0.00%     52.84% # Number of instructions issued per FU type, per thread (Count)
system.cpu.statIssuedInstType_0::FloatMult            0      0.00%     52.84% # Number of instructions issued per FU type, per thread (Count)
system.cpu.statIssuedInstType_0::FloatMultAcc            0      0.00%     52.84% # Number of instructions issued per FU type, per thread (Count)
system.cpu.statIssuedInstType_0::FloatDiv            0      0.00%     52.84% # Number of instructions issued per FU type, per thread (Count)
system.cpu.statIssuedInstType_0::FloatMisc            0      0.00%     52.84% # Number of instructions issued per FU type, per thread (Count)
system.cpu.statIssuedInstType_0::FloatSqrt            0      0.00%     52.84% # Number of instructions issued per FU type, per thread (Count)
system.cpu.statIssuedInstType_0::SimdAdd            0      0.00%     52.84% # Number of instructions issued per FU type, per thread (Count)
system.cpu.statIssuedInstType_0::SimdAddAcc            0      0.00%     52.84% # Number of instructions issued per FU type, per thread (Count)
system.cpu.statIssuedInstType_0::SimdAlu            0      0.00%     52.84% # Number of instructions issued per FU type, per thread (Count)
system.cpu.statIssuedInstType_0::SimdCmp            0      0.00%     52.84% # Number of instructions issued per FU type, per thread (Count)
system.cpu.statIssuedInstType_0::SimdCvt            0      0.00%     52.84% # Number of instructions issued per FU type, per thread (Count)
system.cpu.statIssuedInstType_0::SimdMisc            0      0.00%     52.84% # Number of instructions issued per FU type, per thread (Count)
system.cpu.statIssuedInstType_0::SimdMult            0      0.00%     52.84% # Number of instructions issued per FU type, per thread (Count)
system.cpu.statIssuedInstType_0::SimdMultAcc            0      0.00%     52.84% # Number of instructions issued per FU type, per thread (Count)
system.cpu.statIssuedInstType_0::SimdShift            0      0.00%     52.84% # Number of instructions issued per FU type, per thread (Count)
system.cpu.statIssuedInstType_0::SimdShiftAcc            0      0.00%     52.84% # Number of instructions issued per FU type, per thread (Count)
system.cpu.statIssuedInstType_0::SimdDiv            0      0.00%     52.84% # Number of instructions issued per FU type, per thread (Count)
system.cpu.statIssuedInstType_0::SimdSqrt            0      0.00%     52.84% # Number of instructions issued per FU type, per thread (Count)
system.cpu.statIssuedInstType_0::SimdFloatAdd            0      0.00%     52.84% # Number of instructions issued per FU type, per thread (Count)
system.cpu.statIssuedInstType_0::SimdFloatAlu            0      0.00%     52.84% # Number of instructions issued per FU type, per thread (Count)
system.cpu.statIssuedInstType_0::SimdFloatCmp            0      0.00%     52.84% # Number of instructions issued per FU type, per thread (Count)
system.cpu.statIssuedInstType_0::SimdFloatCvt            0      0.00%     52.84% # Number of instructions issued per FU type, per thread (Count)
system.cpu.statIssuedInstType_0::SimdFloatDiv            0      0.00%     52.84% # Number of instructions issued per FU type, per thread (Count)
system.cpu.statIssuedInstType_0::SimdFloatMisc            0      0.00%     52.84% # Number of instructions issued per FU type, per thread (Count)
system.cpu.statIssuedInstType_0::SimdFloatMult            0      0.00%     52.84% # Number of instructions issued per FU type, per thread (Count)
system.cpu.statIssuedInstType_0::SimdFloatMultAcc            0      0.00%     52.84% # Number of instructions issued per FU type, per thread (Count)
system.cpu.statIssuedInstType_0::SimdFloatSqrt            0      0.00%     52.84% # Number of instructions issued per FU type, per thread (Count)
system.cpu.statIssuedInstType_0::SimdReduceAdd            0      0.00%     52.84% # Number of instructions issued per FU type, per thread (Count)
system.cpu.statIssuedInstType_0::SimdReduceAlu            0      0.00%     52.84% # Number of instructions issued per FU type, per thread (Count)
system.cpu.statIssuedInstType_0::SimdReduceCmp            0      0.00%     52.84% # Number of instructions issued per FU type, per thread (Count)
system.cpu.statIssuedInstType_0::SimdFloatReduceAdd            0      0.00%     52.84% # Number of instructions issued per FU type, per thread (Count)
system.cpu.statIssuedInstType_0::SimdFloatReduceCmp            0      0.00%     52.84% # Number of instructions issued per FU type, per thread (Count)
system.cpu.statIssuedInstType_0::SimdAes            0      0.00%     52.84% # Number of instructions issued per FU type, per thread (Count)
system.cpu.statIssuedInstType_0::SimdAesMix            0      0.00%     52.84% # Number of instructions issued per FU type, per thread (Count)
system.cpu.statIssuedInstType_0::SimdSha1Hash            0      0.00%     52.84% # Number of instructions issued per FU type, per thread (Count)
system.cpu.statIssuedInstType_0::SimdSha1Hash2            0      0.00%     52.84% # Number of instructions issued per FU type, per thread (Count)
system.cpu.statIssuedInstType_0::SimdSha256Hash            0      0.00%     52.84% # Number of instructions issued per FU type, per thread (Count)
system.cpu.statIssuedInstType_0::SimdSha256Hash2            0      0.00%     52.84% # Number of instructions issued per FU type, per thread (Count)
system.cpu.statIssuedInstType_0::SimdShaSigma2            0      0.00%     52.84% # Number of instructions issued per FU type, per thread (Count)
system.cpu.statIssuedInstType_0::SimdShaSigma3            0      0.00%     52.84% # Number of instructions issued per FU type, per thread (Count)
system.cpu.statIssuedInstType_0::SimdPredAlu            0      0.00%     52.84% # Number of instructions issued per FU type, per thread (Count)
system.cpu.statIssuedInstType_0::MemRead      1987810      1.06%     53.90% # Number of instructions issued per FU type, per thread (Count)
system.cpu.statIssuedInstType_0::MemWrite     86766965     46.10%    100.00% # Number of instructions issued per FU type, per thread (Count)
system.cpu.statIssuedInstType_0::FloatMemRead            0      0.00%    100.00% # Number of instructions issued per FU type, per thread (Count)
system.cpu.statIssuedInstType_0::FloatMemWrite            0      0.00%    100.00% # Number of instructions issued per FU type, per thread (Count)
system.cpu.statIssuedInstType_0::IprAccess            0      0.00%    100.00% # Number of instructions issued per FU type, per thread (Count)
system.cpu.statIssuedInstType_0::InstPrefetch            0      0.00%    100.00% # Number of instructions issued per FU type, per thread (Count)
system.cpu.statIssuedInstType_0::total      188215847                       # Number of instructions issued per FU type, per thread (Count)
system.cpu.issueRate                         0.467695                       # Inst issue rate ((Count/Cycle))
system.cpu.fuBusy                               72198                       # FU busy when requested (Count)
system.cpu.fuBusyRate                        0.000384                       # FU busy rate (busy events/executed inst) ((Count/Count))
system.cpu.intInstQueueReads                778879448                       # Number of integer instruction queue reads (Count)
system.cpu.intInstQueueWrites               191330789                       # Number of integer instruction queue writes (Count)
system.cpu.intInstQueueWakeupAccesses       187523184                       # Number of integer instruction queue wakeup accesses (Count)
system.cpu.fpInstQueueReads                         0                       # Number of floating instruction queue reads (Count)
system.cpu.fpInstQueueWrites                        0                       # Number of floating instruction queue writes (Count)
system.cpu.fpInstQueueWakeupAccesses                0                       # Number of floating instruction queue wakeup accesses (Count)
system.cpu.vecInstQueueReads                        0                       # Number of vector instruction queue reads (Count)
system.cpu.vecInstQueueWrites                       0                       # Number of vector instruction queue writes (Count)
system.cpu.vecInstQueueWakeupAccesses               0                       # Number of vector instruction queue wakeup accesses (Count)
system.cpu.intAluAccesses                   188288041                       # Number of integer alu accesses (Count)
system.cpu.fpAluAccesses                            0                       # Number of floating point alu accesses (Count)
system.cpu.vecAluAccesses                           0                       # Number of vector alu accesses (Count)
system.cpu.idleCycles                               0                       # Number of cycles IEW is idle (Cycle)
system.cpu.squashCycles                         46169                       # Number of cycles IEW is squashing (Cycle)
system.cpu.blockCycles                         185791                       # Number of cycles IEW is blocking (Cycle)
system.cpu.unblockCycles                        17550                       # Number of cycles IEW is unblocking (Cycle)
system.cpu.dispatchedInsts                  188241316                       # Number of instructions dispatched to IQ (Count)
system.cpu.dispSquashedInsts                      463                       # Number of squashed instructions skipped by dispatch (Count)
system.cpu.dispLoadInsts                      1990763                       # Number of dispatched load instructions (Count)
system.cpu.dispStoreInsts                    86771723                       # Number of dispatched store instructions (Count)
system.cpu.dispNonSpecInsts                        73                       # Number of dispatched non-speculative instructions (Count)
system.cpu.iqFullEvents                           135                       # Number of times the IQ has become full, causing a stall (Count)
system.cpu.lsqFullEvents                        17110                       # Number of times the LSQ has become full, causing a stall (Count)
system.cpu.memOrderViolationEvents                176                       # Number of memory order violations (Count)
system.cpu.predictedTakenIncorrect                514                       # Number of branches that were predicted taken incorrectly (Count)
system.cpu.predictedNotTakenIncorrect            1844                       # Number of branches that were predicted not taken incorrectly (Count)
system.cpu.branchMispredicts                     2358                       # Number of branch mispredicts detected at execute (Count)
system.cpu.numInsts                         188212459                       # Number of executed instructions (Count)
system.cpu.numLoadInsts                       1986211                       # Number of load instructions executed (Count)
system.cpu.numSquashedInsts                      3383                       # Number of squashed instructions skipped in execute (Count)
system.cpu.numSwp                                   0                       # Number of swp insts executed (Count)
system.cpu.numNop                                   0                       # Number of nop insts executed (Count)
system.cpu.numRefs                           88752638                       # Number of memory reference insts executed (Count)
system.cpu.numBranches                       10869765                       # Number of branches executed (Count)
system.cpu.numStoreInsts                     86766427                       # Number of stores executed (Count)
system.cpu.numRate                           0.467687                       # Inst execution rate ((Count/Cycle))
system.cpu.instsToCommit                    188208223                       # Cumulative count of insts sent to commit (Count)
system.cpu.writebackCount                   187523184                       # Cumulative count of insts written-back (Count)
system.cpu.producerInst                      83200703                       # Number of instructions producing a value (Count)
system.cpu.consumerInst                     411116025                       # Number of instructions consuming a value (Count)
system.cpu.wbRate                            0.465974                       # Insts written-back per cycle ((Count/Cycle))
system.cpu.wbFanout                          0.202378                       # Average fanout of values written-back ((Count/Count))
system.cpu.timesIdled                             492                       # Number of times that the entire CPU went into an idle state and unscheduled itself (Count)
system.cpu.idleCycles                           57233                       # Total number of cycles that the CPU has spent unscheduled due to idling (Cycle)
system.cpu.committedInsts                   100000001                       # Number of Instructions Simulated (Count)
system.cpu.committedOps                     185151994                       # Number of Ops (including micro ops) Simulated (Count)
system.cpu.cpi                               4.024326                       # CPI: Cycles Per Instruction ((Cycle/Count))
system.cpu.totalCpi                          4.024326                       # CPI: Total CPI of All Threads ((Cycle/Count))
system.cpu.ipc                               0.248489                       # IPC: Instructions Per Cycle ((Count/Cycle))
system.cpu.totalIpc                          0.248489                       # IPC: Total IPC of All Threads ((Count/Cycle))
system.cpu.intRegfileReads                  265060000                       # Number of integer regfile reads (Count)
system.cpu.intRegfileWrites                  90316851                       # Number of integer regfile writes (Count)
system.cpu.vecRegfileReads                         16                       # number of vector regfile reads (Count)
system.cpu.ccRegfileReads                   570582939                       # number of cc regfile reads (Count)
system.cpu.ccRegfileWrites                  130606857                       # number of cc regfile writes (Count)
system.cpu.miscRegfileReads                 355918393                       # number of misc regfile reads (Count)
system.cpu.miscRegfileWrites                      137                       # number of misc regfile writes (Count)
system.cpu.MemDepUnit__0.insertedLoads        1990763                       # Number of loads inserted to the mem dependence unit. (Count)
system.cpu.MemDepUnit__0.insertedStores      86771723                       # Number of stores inserted to the mem dependence unit. (Count)
system.cpu.MemDepUnit__0.conflictingLoads       154730                       # Number of conflicting loads. (Count)
system.cpu.MemDepUnit__0.conflictingStores        25178                       # Number of conflicting stores. (Count)
system.cpu.MemDepUnit__1.insertedLoads              0                       # Number of loads inserted to the mem dependence unit. (Count)
system.cpu.MemDepUnit__1.insertedStores             0                       # Number of stores inserted to the mem dependence unit. (Count)
system.cpu.MemDepUnit__1.conflictingLoads            0                       # Number of conflicting loads. (Count)
system.cpu.MemDepUnit__1.conflictingStores            0                       # Number of conflicting stores. (Count)
system.cpu.MemDepUnit__2.insertedLoads              0                       # Number of loads inserted to the mem dependence unit. (Count)
system.cpu.MemDepUnit__2.insertedStores             0                       # Number of stores inserted to the mem dependence unit. (Count)
system.cpu.MemDepUnit__2.conflictingLoads            0                       # Number of conflicting loads. (Count)
system.cpu.MemDepUnit__2.conflictingStores            0                       # Number of conflicting stores. (Count)
system.cpu.MemDepUnit__3.insertedLoads              0                       # Number of loads inserted to the mem dependence unit. (Count)
system.cpu.MemDepUnit__3.insertedStores             0                       # Number of stores inserted to the mem dependence unit. (Count)
system.cpu.MemDepUnit__3.conflictingLoads            0                       # Number of conflicting loads. (Count)
system.cpu.MemDepUnit__3.conflictingStores            0                       # Number of conflicting stores. (Count)
system.cpu.branchPred.lookups                11052695                       # Number of BP lookups (Count)
system.cpu.branchPred.condPredicted          11040527                       # Number of conditional branches predicted (Count)
system.cpu.branchPred.condIncorrect              2452                       # Number of conditional branches incorrect (Count)
system.cpu.branchPred.BTBLookups             11037991                       # Number of BTB lookups (Count)
system.cpu.branchPred.BTBHits                11037161                       # Number of BTB hits (Count)
system.cpu.branchPred.BTBMissPct             0.000075                       # BTB Miss Percentage (Ratio)
system.cpu.branchPred.BTBHitRatio            0.999925                       # BTB Hit Ratio (Ratio)
system.cpu.branchPred.RASUsed                    3884                       # Number of times the RAS was used to get a target. (Count)
system.cpu.branchPred.RASIncorrect                 67                       # Number of incorrect RAS predictions. (Count)
system.cpu.branchPred.indirectLookups             605                       # Number of indirect predictor lookups. (Count)
system.cpu.branchPred.indirectHits                259                       # Number of indirect target hits. (Count)
system.cpu.branchPred.indirectMisses              346                       # Number of indirect misses. (Count)
system.cpu.branchPred.indirectMispredicted          173                       # Number of mispredicted indirect branches. (Count)
system.cpu.commit.commitSquashedInsts         1771047                       # The number of squashed insts skipped by commit (Count)
system.cpu.commit.commitNonSpecStalls              87                       # The number of times commit has been forced to stall to communicate backwards (Count)
system.cpu.commit.branchMispredicts              2053                       # The number of times a branch was mispredicted (Count)
system.cpu.commit.numCommittedDist::samples    402147019                       # Number of insts commited each cycle
system.cpu.commit.numCommittedDist::mean     0.460409                       # Number of insts commited each cycle
system.cpu.commit.numCommittedDist::stdev     1.264463                       # Number of insts commited each cycle
system.cpu.commit.numCommittedDist::underflows            0      0.00%      0.00% # Number of insts commited each cycle
system.cpu.commit.numCommittedDist::0       346966522     86.28%     86.28% # Number of insts commited each cycle
system.cpu.commit.numCommittedDist::1        11472252      2.85%     89.13% # Number of insts commited each cycle
system.cpu.commit.numCommittedDist::2         1048830      0.26%     89.39% # Number of insts commited each cycle
system.cpu.commit.numCommittedDist::3         8550833      2.13%     91.52% # Number of insts commited each cycle
system.cpu.commit.numCommittedDist::4        25740182      6.40%     97.92% # Number of insts commited each cycle
system.cpu.commit.numCommittedDist::5         7973159      1.98%     99.90% # Number of insts commited each cycle
system.cpu.commit.numCommittedDist::6            7644      0.00%     99.90% # Number of insts commited each cycle
system.cpu.commit.numCommittedDist::7           43580      0.01%     99.91% # Number of insts commited each cycle
system.cpu.commit.numCommittedDist::8          344017      0.09%    100.00% # Number of insts commited each cycle
system.cpu.commit.numCommittedDist::overflows            0      0.00%    100.00% # Number of insts commited each cycle
system.cpu.commit.numCommittedDist::min_value            0                       # Number of insts commited each cycle
system.cpu.commit.numCommittedDist::max_value            8                       # Number of insts commited each cycle
system.cpu.commit.numCommittedDist::total    402147019                       # Number of insts commited each cycle
system.cpu.commit.instsCommitted            100000001                       # Number of instructions committed (Count)
system.cpu.commit.opsCommitted              185151994                       # Number of ops (including micro ops) committed (Count)
system.cpu.commit.memRefs                    87286940                       # Number of memory references committed (Count)
system.cpu.commit.loads                       1972953                       # Number of loads committed (Count)
system.cpu.commit.amos                              0                       # Number of atomic instructions committed (Count)
system.cpu.commit.membars                          34                       # Number of memory barriers committed (Count)
system.cpu.commit.branches                   10690638                       # Number of branches committed (Count)
system.cpu.commit.vectorInstructions                0                       # Number of committed Vector instructions. (Count)
system.cpu.commit.floating                          0                       # Number of committed floating point instructions. (Count)
system.cpu.commit.integer                   174467004                       # Number of committed integer instructions. (Count)
system.cpu.commit.functionCalls                  2665                       # Number of function calls committed. (Count)
system.cpu.commit.committedInstType_0::No_OpClass            0      0.00%      0.00% # Class of committed instruction (Count)
system.cpu.commit.committedInstType_0::IntAlu     97864975     52.86%     52.86% # Class of committed instruction (Count)
system.cpu.commit.committedInstType_0::IntMult           79      0.00%     52.86% # Class of committed instruction (Count)
system.cpu.commit.committedInstType_0::IntDiv            0      0.00%     52.86% # Class of committed instruction (Count)
system.cpu.commit.committedInstType_0::FloatAdd            0      0.00%     52.86% # Class of committed instruction (Count)
system.cpu.commit.committedInstType_0::FloatCmp            0      0.00%     52.86% # Class of committed instruction (Count)
system.cpu.commit.committedInstType_0::FloatCvt            0      0.00%     52.86% # Class of committed instruction (Count)
system.cpu.commit.committedInstType_0::FloatMult            0      0.00%     52.86% # Class of committed instruction (Count)
system.cpu.commit.committedInstType_0::FloatMultAcc            0      0.00%     52.86% # Class of committed instruction (Count)
system.cpu.commit.committedInstType_0::FloatDiv            0      0.00%     52.86% # Class of committed instruction (Count)
system.cpu.commit.committedInstType_0::FloatMisc            0      0.00%     52.86% # Class of committed instruction (Count)
system.cpu.commit.committedInstType_0::FloatSqrt            0      0.00%     52.86% # Class of committed instruction (Count)
system.cpu.commit.committedInstType_0::SimdAdd            0      0.00%     52.86% # Class of committed instruction (Count)
system.cpu.commit.committedInstType_0::SimdAddAcc            0      0.00%     52.86% # Class of committed instruction (Count)
system.cpu.commit.committedInstType_0::SimdAlu            0      0.00%     52.86% # Class of committed instruction (Count)
system.cpu.commit.committedInstType_0::SimdCmp            0      0.00%     52.86% # Class of committed instruction (Count)
system.cpu.commit.committedInstType_0::SimdCvt            0      0.00%     52.86% # Class of committed instruction (Count)
system.cpu.commit.committedInstType_0::SimdMisc            0      0.00%     52.86% # Class of committed instruction (Count)
system.cpu.commit.committedInstType_0::SimdMult            0      0.00%     52.86% # Class of committed instruction (Count)
system.cpu.commit.committedInstType_0::SimdMultAcc            0      0.00%     52.86% # Class of committed instruction (Count)
system.cpu.commit.committedInstType_0::SimdShift            0      0.00%     52.86% # Class of committed instruction (Count)
system.cpu.commit.committedInstType_0::SimdShiftAcc            0      0.00%     52.86% # Class of committed instruction (Count)
system.cpu.commit.committedInstType_0::SimdDiv            0      0.00%     52.86% # Class of committed instruction (Count)
system.cpu.commit.committedInstType_0::SimdSqrt            0      0.00%     52.86% # Class of committed instruction (Count)
system.cpu.commit.committedInstType_0::SimdFloatAdd            0      0.00%     52.86% # Class of committed instruction (Count)
system.cpu.commit.committedInstType_0::SimdFloatAlu            0      0.00%     52.86% # Class of committed instruction (Count)
system.cpu.commit.committedInstType_0::SimdFloatCmp            0      0.00%     52.86% # Class of committed instruction (Count)
system.cpu.commit.committedInstType_0::SimdFloatCvt            0      0.00%     52.86% # Class of committed instruction (Count)
system.cpu.commit.committedInstType_0::SimdFloatDiv            0      0.00%     52.86% # Class of committed instruction (Count)
system.cpu.commit.committedInstType_0::SimdFloatMisc            0      0.00%     52.86% # Class of committed instruction (Count)
system.cpu.commit.committedInstType_0::SimdFloatMult            0      0.00%     52.86% # Class of committed instruction (Count)
system.cpu.commit.committedInstType_0::SimdFloatMultAcc            0      0.00%     52.86% # Class of committed instruction (Count)
system.cpu.commit.committedInstType_0::SimdFloatSqrt            0      0.00%     52.86% # Class of committed instruction (Count)
system.cpu.commit.committedInstType_0::SimdReduceAdd            0      0.00%     52.86% # Class of committed instruction (Count)
system.cpu.commit.committedInstType_0::SimdReduceAlu            0      0.00%     52.86% # Class of committed instruction (Count)
system.cpu.commit.committedInstType_0::SimdReduceCmp            0      0.00%     52.86% # Class of committed instruction (Count)
system.cpu.commit.committedInstType_0::SimdFloatReduceAdd            0      0.00%     52.86% # Class of committed instruction (Count)
system.cpu.commit.committedInstType_0::SimdFloatReduceCmp            0      0.00%     52.86% # Class of committed instruction (Count)
system.cpu.commit.committedInstType_0::SimdAes            0      0.00%     52.86% # Class of committed instruction (Count)
system.cpu.commit.committedInstType_0::SimdAesMix            0      0.00%     52.86% # Class of committed instruction (Count)
system.cpu.commit.committedInstType_0::SimdSha1Hash            0      0.00%     52.86% # Class of committed instruction (Count)
system.cpu.commit.committedInstType_0::SimdSha1Hash2            0      0.00%     52.86% # Class of committed instruction (Count)
system.cpu.commit.committedInstType_0::SimdSha256Hash            0      0.00%     52.86% # Class of committed instruction (Count)
system.cpu.commit.committedInstType_0::SimdSha256Hash2            0      0.00%     52.86% # Class of committed instruction (Count)
system.cpu.commit.committedInstType_0::SimdShaSigma2            0      0.00%     52.86% # Class of committed instruction (Count)
system.cpu.commit.committedInstType_0::SimdShaSigma3            0      0.00%     52.86% # Class of committed instruction (Count)
system.cpu.commit.committedInstType_0::SimdPredAlu            0      0.00%     52.86% # Class of committed instruction (Count)
system.cpu.commit.committedInstType_0::MemRead      1972953      1.07%     53.92% # Class of committed instruction (Count)
system.cpu.commit.committedInstType_0::MemWrite     85313987     46.08%    100.00% # Class of committed instruction (Count)
system.cpu.commit.committedInstType_0::FloatMemRead            0      0.00%    100.00% # Class of committed instruction (Count)
system.cpu.commit.committedInstType_0::FloatMemWrite            0      0.00%    100.00% # Class of committed instruction (Count)
system.cpu.commit.committedInstType_0::IprAccess            0      0.00%    100.00% # Class of committed instruction (Count)
system.cpu.commit.committedInstType_0::InstPrefetch            0      0.00%    100.00% # Class of committed instruction (Count)
system.cpu.commit.committedInstType_0::total    185151994                       # Class of committed instruction (Count)
system.cpu.commit.commitEligibleSamples        344017                       # number cycles where commit BW limit reached (Cycle)
system.cpu.dcache.demandHits::cpu.data        3126845                       # number of demand (read+write) hits (Count)
system.cpu.dcache.demandHits::total           3126845                       # number of demand (read+write) hits (Count)
system.cpu.dcache.overallHits::cpu.data       3126845                       # number of overall hits (Count)
system.cpu.dcache.overallHits::total          3126845                       # number of overall hits (Count)
system.cpu.dcache.demandMisses::cpu.data     83986536                       # number of demand (read+write) misses (Count)
system.cpu.dcache.demandMisses::total        83986536                       # number of demand (read+write) misses (Count)
system.cpu.dcache.overallMisses::cpu.data     83986536                       # number of overall misses (Count)
system.cpu.dcache.overallMisses::total       83986536                       # number of overall misses (Count)
system.cpu.dcache.demandMissLatency::cpu.data 6017425172953                       # number of demand (read+write) miss ticks (Tick)
system.cpu.dcache.demandMissLatency::total 6017425172953                       # number of demand (read+write) miss ticks (Tick)
system.cpu.dcache.overallMissLatency::cpu.data 6017425172953                       # number of overall miss ticks (Tick)
system.cpu.dcache.overallMissLatency::total 6017425172953                       # number of overall miss ticks (Tick)
system.cpu.dcache.demandAccesses::cpu.data     87113381                       # number of demand (read+write) accesses (Count)
system.cpu.dcache.demandAccesses::total      87113381                       # number of demand (read+write) accesses (Count)
system.cpu.dcache.overallAccesses::cpu.data     87113381                       # number of overall (read+write) accesses (Count)
system.cpu.dcache.overallAccesses::total     87113381                       # number of overall (read+write) accesses (Count)
system.cpu.dcache.demandMissRate::cpu.data     0.964106                       # miss rate for demand accesses (Ratio)
system.cpu.dcache.demandMissRate::total      0.964106                       # miss rate for demand accesses (Ratio)
system.cpu.dcache.overallMissRate::cpu.data     0.964106                       # miss rate for overall accesses (Ratio)
system.cpu.dcache.overallMissRate::total     0.964106                       # miss rate for overall accesses (Ratio)
system.cpu.dcache.demandAvgMissLatency::cpu.data 71647.498034                       # average overall miss latency ((Cycle/Count))
system.cpu.dcache.demandAvgMissLatency::total 71647.498034                       # average overall miss latency ((Cycle/Count))
system.cpu.dcache.overallAvgMissLatency::cpu.data 71647.498034                       # average overall miss latency ((Cycle/Count))
system.cpu.dcache.overallAvgMissLatency::total 71647.498034                       # average overall miss latency ((Cycle/Count))
system.cpu.dcache.blockedCycles::no_mshrs        15296                       # number of cycles access was blocked (Cycle)
system.cpu.dcache.blockedCycles::no_targets            0                       # number of cycles access was blocked (Cycle)
system.cpu.dcache.blockedCauses::no_mshrs          182                       # number of times access was blocked (Count)
system.cpu.dcache.blockedCauses::no_targets            0                       # number of times access was blocked (Count)
system.cpu.dcache.avgBlocked::no_mshrs      84.043956                       # average number of cycles each access was blocked ((Cycle/Count))
system.cpu.dcache.avgBlocked::no_targets          nan                       # average number of cycles each access was blocked ((Cycle/Count))
system.cpu.dcache.writebacks::writebacks      5323076                       # number of writebacks (Count)
system.cpu.dcache.writebacks::total           5323076                       # number of writebacks (Count)
system.cpu.dcache.demandMshrHits::cpu.data     78662091                       # number of demand (read+write) MSHR hits (Count)
system.cpu.dcache.demandMshrHits::total      78662091                       # number of demand (read+write) MSHR hits (Count)
system.cpu.dcache.overallMshrHits::cpu.data     78662091                       # number of overall MSHR hits (Count)
system.cpu.dcache.overallMshrHits::total     78662091                       # number of overall MSHR hits (Count)
system.cpu.dcache.demandMshrMisses::cpu.data      5324445                       # number of demand (read+write) MSHR misses (Count)
system.cpu.dcache.demandMshrMisses::total      5324445                       # number of demand (read+write) MSHR misses (Count)
system.cpu.dcache.overallMshrMisses::cpu.data      5324445                       # number of overall MSHR misses (Count)
system.cpu.dcache.overallMshrMisses::total      5324445                       # number of overall MSHR misses (Count)
system.cpu.dcache.demandMshrMissLatency::cpu.data 539112622471                       # number of demand (read+write) MSHR miss ticks (Tick)
system.cpu.dcache.demandMshrMissLatency::total 539112622471                       # number of demand (read+write) MSHR miss ticks (Tick)
system.cpu.dcache.overallMshrMissLatency::cpu.data 539112622471                       # number of overall MSHR miss ticks (Tick)
system.cpu.dcache.overallMshrMissLatency::total 539112622471                       # number of overall MSHR miss ticks (Tick)
system.cpu.dcache.demandMshrMissRate::cpu.data     0.061121                       # mshr miss ratio for demand accesses (Ratio)
system.cpu.dcache.demandMshrMissRate::total     0.061121                       # mshr miss ratio for demand accesses (Ratio)
system.cpu.dcache.overallMshrMissRate::cpu.data     0.061121                       # mshr miss ratio for overall accesses (Ratio)
system.cpu.dcache.overallMshrMissRate::total     0.061121                       # mshr miss ratio for overall accesses (Ratio)
system.cpu.dcache.demandAvgMshrMissLatency::cpu.data 101252.360100                       # average overall mshr miss latency ((Cycle/Count))
system.cpu.dcache.demandAvgMshrMissLatency::total 101252.360100                       # average overall mshr miss latency ((Cycle/Count))
system.cpu.dcache.overallAvgMshrMissLatency::cpu.data 101252.360100                       # average overall mshr miss latency ((Cycle/Count))
system.cpu.dcache.overallAvgMshrMissLatency::total 101252.360100                       # average overall mshr miss latency ((Cycle/Count))
system.cpu.dcache.replacements                5323420                       # number of replacements (Count)
system.cpu.dcache.LoadLockedReq.hits::cpu.data           41                       # number of LoadLockedReq hits (Count)
system.cpu.dcache.LoadLockedReq.hits::total           41                       # number of LoadLockedReq hits (Count)
system.cpu.dcache.LoadLockedReq.accesses::cpu.data           41                       # number of LoadLockedReq accesses(hits+misses) (Count)
system.cpu.dcache.LoadLockedReq.accesses::total           41                       # number of LoadLockedReq accesses(hits+misses) (Count)
system.cpu.dcache.ReadReq.hits::cpu.data      1799042                       # number of ReadReq hits (Count)
system.cpu.dcache.ReadReq.hits::total         1799042                       # number of ReadReq hits (Count)
system.cpu.dcache.ReadReq.misses::cpu.data          819                       # number of ReadReq misses (Count)
system.cpu.dcache.ReadReq.misses::total           819                       # number of ReadReq misses (Count)
system.cpu.dcache.ReadReq.missLatency::cpu.data     62064000                       # number of ReadReq miss ticks (Tick)
system.cpu.dcache.ReadReq.missLatency::total     62064000                       # number of ReadReq miss ticks (Tick)
system.cpu.dcache.ReadReq.accesses::cpu.data      1799861                       # number of ReadReq accesses(hits+misses) (Count)
system.cpu.dcache.ReadReq.accesses::total      1799861                       # number of ReadReq accesses(hits+misses) (Count)
system.cpu.dcache.ReadReq.missRate::cpu.data     0.000455                       # miss rate for ReadReq accesses (Ratio)
system.cpu.dcache.ReadReq.missRate::total     0.000455                       # miss rate for ReadReq accesses (Ratio)
system.cpu.dcache.ReadReq.avgMissLatency::cpu.data 75780.219780                       # average ReadReq miss latency ((Tick/Count))
system.cpu.dcache.ReadReq.avgMissLatency::total 75780.219780                       # average ReadReq miss latency ((Tick/Count))
system.cpu.dcache.ReadReq.mshrHits::cpu.data          422                       # number of ReadReq MSHR hits (Count)
system.cpu.dcache.ReadReq.mshrHits::total          422                       # number of ReadReq MSHR hits (Count)
system.cpu.dcache.ReadReq.mshrMisses::cpu.data          397                       # number of ReadReq MSHR misses (Count)
system.cpu.dcache.ReadReq.mshrMisses::total          397                       # number of ReadReq MSHR misses (Count)
system.cpu.dcache.ReadReq.mshrMissLatency::cpu.data     32032500                       # number of ReadReq MSHR miss ticks (Tick)
system.cpu.dcache.ReadReq.mshrMissLatency::total     32032500                       # number of ReadReq MSHR miss ticks (Tick)
system.cpu.dcache.ReadReq.mshrMissRate::cpu.data     0.000221                       # mshr miss rate for ReadReq accesses (Ratio)
system.cpu.dcache.ReadReq.mshrMissRate::total     0.000221                       # mshr miss rate for ReadReq accesses (Ratio)
system.cpu.dcache.ReadReq.avgMshrMissLatency::cpu.data 80686.397985                       # average ReadReq mshr miss latency ((Tick/Count))
system.cpu.dcache.ReadReq.avgMshrMissLatency::total 80686.397985                       # average ReadReq mshr miss latency ((Tick/Count))
system.cpu.dcache.StoreCondReq.hits::cpu.data           34                       # number of StoreCondReq hits (Count)
system.cpu.dcache.StoreCondReq.hits::total           34                       # number of StoreCondReq hits (Count)
system.cpu.dcache.StoreCondReq.accesses::cpu.data           34                       # number of StoreCondReq accesses(hits+misses) (Count)
system.cpu.dcache.StoreCondReq.accesses::total           34                       # number of StoreCondReq accesses(hits+misses) (Count)
system.cpu.dcache.WriteReq.hits::cpu.data      1327803                       # number of WriteReq hits (Count)
system.cpu.dcache.WriteReq.hits::total        1327803                       # number of WriteReq hits (Count)
system.cpu.dcache.WriteReq.misses::cpu.data     83985717                       # number of WriteReq misses (Count)
system.cpu.dcache.WriteReq.misses::total     83985717                       # number of WriteReq misses (Count)
system.cpu.dcache.WriteReq.missLatency::cpu.data 6017363108953                       # number of WriteReq miss ticks (Tick)
system.cpu.dcache.WriteReq.missLatency::total 6017363108953                       # number of WriteReq miss ticks (Tick)
system.cpu.dcache.WriteReq.accesses::cpu.data     85313520                       # number of WriteReq accesses(hits+misses) (Count)
system.cpu.dcache.WriteReq.accesses::total     85313520                       # number of WriteReq accesses(hits+misses) (Count)
system.cpu.dcache.WriteReq.missRate::cpu.data     0.984436                       # miss rate for WriteReq accesses (Ratio)
system.cpu.dcache.WriteReq.missRate::total     0.984436                       # miss rate for WriteReq accesses (Ratio)
system.cpu.dcache.WriteReq.avgMissLatency::cpu.data 71647.457733                       # average WriteReq miss latency ((Tick/Count))
system.cpu.dcache.WriteReq.avgMissLatency::total 71647.457733                       # average WriteReq miss latency ((Tick/Count))
system.cpu.dcache.WriteReq.mshrHits::cpu.data     78661669                       # number of WriteReq MSHR hits (Count)
system.cpu.dcache.WriteReq.mshrHits::total     78661669                       # number of WriteReq MSHR hits (Count)
system.cpu.dcache.WriteReq.mshrMisses::cpu.data      5324048                       # number of WriteReq MSHR misses (Count)
system.cpu.dcache.WriteReq.mshrMisses::total      5324048                       # number of WriteReq MSHR misses (Count)
system.cpu.dcache.WriteReq.mshrMissLatency::cpu.data 539080589971                       # number of WriteReq MSHR miss ticks (Tick)
system.cpu.dcache.WriteReq.mshrMissLatency::total 539080589971                       # number of WriteReq MSHR miss ticks (Tick)
system.cpu.dcache.WriteReq.mshrMissRate::cpu.data     0.062406                       # mshr miss rate for WriteReq accesses (Ratio)
system.cpu.dcache.WriteReq.mshrMissRate::total     0.062406                       # mshr miss rate for WriteReq accesses (Ratio)
system.cpu.dcache.WriteReq.avgMshrMissLatency::cpu.data 101253.893648                       # average WriteReq mshr miss latency ((Tick/Count))
system.cpu.dcache.WriteReq.avgMshrMissLatency::total 101253.893648                       # average WriteReq mshr miss latency ((Tick/Count))
system.cpu.dcache.power_state.pwrStateResidencyTicks::UNDEFINED 201216289500                       # Cumulative time (in ticks) in various power states (Tick)
system.cpu.dcache.tags.tagsInUse          1023.783402                       # Average ticks per tags in use ((Tick/Count))
system.cpu.dcache.tags.totalRefs              8451364                       # Total number of references to valid blocks. (Count)
system.cpu.dcache.tags.sampledRefs            5324444                       # Sample count of references to valid blocks. (Count)
system.cpu.dcache.tags.avgRefs               1.587276                       # Average number of references to valid blocks. ((Count/Count))
system.cpu.dcache.tags.warmupTick              161000                       # The tick when the warmup percentage was hit. (Tick)
system.cpu.dcache.tags.occupancies::cpu.data  1023.783402                       # Average occupied blocks per tick, per requestor ((Count/Tick))
system.cpu.dcache.tags.avgOccs::cpu.data     0.999788                       # Average percentage of cache occupancy ((Ratio/Tick))
system.cpu.dcache.tags.avgOccs::total        0.999788                       # Average percentage of cache occupancy ((Ratio/Tick))
system.cpu.dcache.tags.occupanciesTaskId::1024         1024                       # Occupied blocks per task id (Count)
system.cpu.dcache.tags.ageTaskId_1024::0          270                       # Occupied blocks per task id, per block age (Count)
system.cpu.dcache.tags.ageTaskId_1024::1          754                       # Occupied blocks per task id, per block age (Count)
system.cpu.dcache.tags.ratioOccsTaskId::1024            1                       # Ratio of occupied blocks and all blocks, per task id (Ratio)
system.cpu.dcache.tags.tagAccesses          702232092                       # Number of tag accesses (Count)
system.cpu.dcache.tags.dataAccesses         702232092                       # Number of data accesses (Count)
system.cpu.dcache.tags.power_state.pwrStateResidencyTicks::UNDEFINED 201216289500                       # Cumulative time (in ticks) in various power states (Tick)
system.cpu.decode.idleCycles                  5540133                       # Number of cycles decode is idle (Cycle)
system.cpu.decode.blockedCycles             373143116                       # Number of cycles decode is blocked (Cycle)
system.cpu.decode.runCycles                  12687755                       # Number of cycles decode is running (Cycle)
system.cpu.decode.unblockCycles              10958174                       # Number of cycles decode is unblocking (Cycle)
system.cpu.decode.squashCycles                  46169                       # Number of cycles decode is squashing (Cycle)
system.cpu.decode.branchResolved             10905298                       # Number of times decode resolved a branch (Count)
system.cpu.decode.branchMispred                   413                       # Number of times decode detected a branch misprediction (Count)
system.cpu.decode.decodedInsts              188920290                       # Number of instructions handled by decode (Count)
system.cpu.decode.squashedInsts                  1717                       # Number of squashed instructions handled by decode (Count)
system.cpu.fetch.icacheStallCycles             320341                       # Number of cycles fetch is stalled on an Icache miss (Cycle)
system.cpu.fetch.insts                      103164979                       # Number of instructions fetch has processed (Count)
system.cpu.fetch.branches                    11052695                       # Number of branches that fetch encountered (Count)
system.cpu.fetch.predictedBranches           11041304                       # Number of branches that fetch has predicted taken (Count)
system.cpu.fetch.cycles                     402008290                       # Number of cycles fetch has run and was not squashing or blocked (Cycle)
system.cpu.fetch.squashCycles                   93142                       # Number of cycles fetch has spent squashing (Cycle)
system.cpu.fetch.miscStallCycles                    9                       # Number of cycles fetch has spent waiting on interrupts, or bad addresses, or out of MSHRs (Cycle)
system.cpu.fetch.pendingTrapStallCycles            57                       # Number of stall cycles due to pending traps (Cycle)
system.cpu.fetch.icacheWaitRetryStallCycles           79                       # Number of stall cycles due to full MSHR (Cycle)
system.cpu.fetch.cacheLines                    305261                       # Number of cache lines fetched (Count)
system.cpu.fetch.icacheSquashes                  1311                       # Number of outstanding Icache misses that were squashed (Count)
system.cpu.fetch.nisnDist::samples          402375347                       # Number of instructions fetched each cycle (Total)
system.cpu.fetch.nisnDist::mean              0.474811                       # Number of instructions fetched each cycle (Total)
system.cpu.fetch.nisnDist::stdev             1.784928                       # Number of instructions fetched each cycle (Total)
system.cpu.fetch.nisnDist::underflows               0      0.00%      0.00% # Number of instructions fetched each cycle (Total)
system.cpu.fetch.nisnDist::0                368736897     91.64%     91.64% # Number of instructions fetched each cycle (Total)
system.cpu.fetch.nisnDist::1                  6997823      1.74%     93.38% # Number of instructions fetched each cycle (Total)
system.cpu.fetch.nisnDist::2                  1354583      0.34%     93.72% # Number of instructions fetched each cycle (Total)
system.cpu.fetch.nisnDist::3                  1407679      0.35%     94.07% # Number of instructions fetched each cycle (Total)
system.cpu.fetch.nisnDist::4                  1408503      0.35%     94.42% # Number of instructions fetched each cycle (Total)
system.cpu.fetch.nisnDist::5                  1376238      0.34%     94.76% # Number of instructions fetched each cycle (Total)
system.cpu.fetch.nisnDist::6                  1390314      0.35%     95.10% # Number of instructions fetched each cycle (Total)
system.cpu.fetch.nisnDist::7                  1361482      0.34%     95.44% # Number of instructions fetched each cycle (Total)
system.cpu.fetch.nisnDist::8                 18341828      4.56%    100.00% # Number of instructions fetched each cycle (Total)
system.cpu.fetch.nisnDist::overflows                0      0.00%    100.00% # Number of instructions fetched each cycle (Total)
system.cpu.fetch.nisnDist::min_value                0                       # Number of instructions fetched each cycle (Total)
system.cpu.fetch.nisnDist::max_value                8                       # Number of instructions fetched each cycle (Total)
system.cpu.fetch.nisnDist::total            402375347                       # Number of instructions fetched each cycle (Total)
system.cpu.fetch.branchRate                  0.027465                       # Number of branch fetches per cycle (Ratio)
system.cpu.fetch.rate                        0.256353                       # Number of inst fetches per cycle ((Count/Cycle))
system.cpu.icache.demandHits::cpu.inst         304180                       # number of demand (read+write) hits (Count)
system.cpu.icache.demandHits::total            304180                       # number of demand (read+write) hits (Count)
system.cpu.icache.overallHits::cpu.inst        304180                       # number of overall hits (Count)
system.cpu.icache.overallHits::total           304180                       # number of overall hits (Count)
system.cpu.icache.demandMisses::cpu.inst         1081                       # number of demand (read+write) misses (Count)
system.cpu.icache.demandMisses::total            1081                       # number of demand (read+write) misses (Count)
system.cpu.icache.overallMisses::cpu.inst         1081                       # number of overall misses (Count)
system.cpu.icache.overallMisses::total           1081                       # number of overall misses (Count)
system.cpu.icache.demandMissLatency::cpu.inst     80541498                       # number of demand (read+write) miss ticks (Tick)
system.cpu.icache.demandMissLatency::total     80541498                       # number of demand (read+write) miss ticks (Tick)
system.cpu.icache.overallMissLatency::cpu.inst     80541498                       # number of overall miss ticks (Tick)
system.cpu.icache.overallMissLatency::total     80541498                       # number of overall miss ticks (Tick)
system.cpu.icache.demandAccesses::cpu.inst       305261                       # number of demand (read+write) accesses (Count)
system.cpu.icache.demandAccesses::total        305261                       # number of demand (read+write) accesses (Count)
system.cpu.icache.overallAccesses::cpu.inst       305261                       # number of overall (read+write) accesses (Count)
system.cpu.icache.overallAccesses::total       305261                       # number of overall (read+write) accesses (Count)
system.cpu.icache.demandMissRate::cpu.inst     0.003541                       # miss rate for demand accesses (Ratio)
system.cpu.icache.demandMissRate::total      0.003541                       # miss rate for demand accesses (Ratio)
system.cpu.icache.overallMissRate::cpu.inst     0.003541                       # miss rate for overall accesses (Ratio)
system.cpu.icache.overallMissRate::total     0.003541                       # miss rate for overall accesses (Ratio)
system.cpu.icache.demandAvgMissLatency::cpu.inst 74506.473636                       # average overall miss latency ((Cycle/Count))
system.cpu.icache.demandAvgMissLatency::total 74506.473636                       # average overall miss latency ((Cycle/Count))
system.cpu.icache.overallAvgMissLatency::cpu.inst 74506.473636                       # average overall miss latency ((Cycle/Count))
system.cpu.icache.overallAvgMissLatency::total 74506.473636                       # average overall miss latency ((Cycle/Count))
system.cpu.icache.blockedCycles::no_mshrs          746                       # number of cycles access was blocked (Cycle)
system.cpu.icache.blockedCycles::no_targets            0                       # number of cycles access was blocked (Cycle)
system.cpu.icache.blockedCauses::no_mshrs           14                       # number of times access was blocked (Count)
system.cpu.icache.blockedCauses::no_targets            0                       # number of times access was blocked (Count)
system.cpu.icache.avgBlocked::no_mshrs      53.285714                       # average number of cycles each access was blocked ((Cycle/Count))
system.cpu.icache.avgBlocked::no_targets          nan                       # average number of cycles each access was blocked ((Cycle/Count))
system.cpu.icache.writebacks::writebacks          215                       # number of writebacks (Count)
system.cpu.icache.writebacks::total               215                       # number of writebacks (Count)
system.cpu.icache.demandMshrHits::cpu.inst          359                       # number of demand (read+write) MSHR hits (Count)
system.cpu.icache.demandMshrHits::total           359                       # number of demand (read+write) MSHR hits (Count)
system.cpu.icache.overallMshrHits::cpu.inst          359                       # number of overall MSHR hits (Count)
system.cpu.icache.overallMshrHits::total          359                       # number of overall MSHR hits (Count)
system.cpu.icache.demandMshrMisses::cpu.inst          722                       # number of demand (read+write) MSHR misses (Count)
system.cpu.icache.demandMshrMisses::total          722                       # number of demand (read+write) MSHR misses (Count)
system.cpu.icache.overallMshrMisses::cpu.inst          722                       # number of overall MSHR misses (Count)
system.cpu.icache.overallMshrMisses::total          722                       # number of overall MSHR misses (Count)
system.cpu.icache.demandMshrMissLatency::cpu.inst     60163499                       # number of demand (read+write) MSHR miss ticks (Tick)
system.cpu.icache.demandMshrMissLatency::total     60163499                       # number of demand (read+write) MSHR miss ticks (Tick)
system.cpu.icache.overallMshrMissLatency::cpu.inst     60163499                       # number of overall MSHR miss ticks (Tick)
system.cpu.icache.overallMshrMissLatency::total     60163499                       # number of overall MSHR miss ticks (Tick)
system.cpu.icache.demandMshrMissRate::cpu.inst     0.002365                       # mshr miss ratio for demand accesses (Ratio)
system.cpu.icache.demandMshrMissRate::total     0.002365                       # mshr miss ratio for demand accesses (Ratio)
system.cpu.icache.overallMshrMissRate::cpu.inst     0.002365                       # mshr miss ratio for overall accesses (Ratio)
system.cpu.icache.overallMshrMissRate::total     0.002365                       # mshr miss ratio for overall accesses (Ratio)
system.cpu.icache.demandAvgMshrMissLatency::cpu.inst 83328.945983                       # average overall mshr miss latency ((Cycle/Count))
system.cpu.icache.demandAvgMshrMissLatency::total 83328.945983                       # average overall mshr miss latency ((Cycle/Count))
system.cpu.icache.overallAvgMshrMissLatency::cpu.inst 83328.945983                       # average overall mshr miss latency ((Cycle/Count))
system.cpu.icache.overallAvgMshrMissLatency::total 83328.945983                       # average overall mshr miss latency ((Cycle/Count))
system.cpu.icache.replacements                    215                       # number of replacements (Count)
system.cpu.icache.ReadReq.hits::cpu.inst       304180                       # number of ReadReq hits (Count)
system.cpu.icache.ReadReq.hits::total          304180                       # number of ReadReq hits (Count)
system.cpu.icache.ReadReq.misses::cpu.inst         1081                       # number of ReadReq misses (Count)
system.cpu.icache.ReadReq.misses::total          1081                       # number of ReadReq misses (Count)
system.cpu.icache.ReadReq.missLatency::cpu.inst     80541498                       # number of ReadReq miss ticks (Tick)
system.cpu.icache.ReadReq.missLatency::total     80541498                       # number of ReadReq miss ticks (Tick)
system.cpu.icache.ReadReq.accesses::cpu.inst       305261                       # number of ReadReq accesses(hits+misses) (Count)
system.cpu.icache.ReadReq.accesses::total       305261                       # number of ReadReq accesses(hits+misses) (Count)
system.cpu.icache.ReadReq.missRate::cpu.inst     0.003541                       # miss rate for ReadReq accesses (Ratio)
system.cpu.icache.ReadReq.missRate::total     0.003541                       # miss rate for ReadReq accesses (Ratio)
system.cpu.icache.ReadReq.avgMissLatency::cpu.inst 74506.473636                       # average ReadReq miss latency ((Tick/Count))
system.cpu.icache.ReadReq.avgMissLatency::total 74506.473636                       # average ReadReq miss latency ((Tick/Count))
system.cpu.icache.ReadReq.mshrHits::cpu.inst          359                       # number of ReadReq MSHR hits (Count)
system.cpu.icache.ReadReq.mshrHits::total          359                       # number of ReadReq MSHR hits (Count)
system.cpu.icache.ReadReq.mshrMisses::cpu.inst          722                       # number of ReadReq MSHR misses (Count)
system.cpu.icache.ReadReq.mshrMisses::total          722                       # number of ReadReq MSHR misses (Count)
system.cpu.icache.ReadReq.mshrMissLatency::cpu.inst     60163499                       # number of ReadReq MSHR miss ticks (Tick)
system.cpu.icache.ReadReq.mshrMissLatency::total     60163499                       # number of ReadReq MSHR miss ticks (Tick)
system.cpu.icache.ReadReq.mshrMissRate::cpu.inst     0.002365                       # mshr miss rate for ReadReq accesses (Ratio)
system.cpu.icache.ReadReq.mshrMissRate::total     0.002365                       # mshr miss rate for ReadReq accesses (Ratio)
system.cpu.icache.ReadReq.avgMshrMissLatency::cpu.inst 83328.945983                       # average ReadReq mshr miss latency ((Tick/Count))
system.cpu.icache.ReadReq.avgMshrMissLatency::total 83328.945983                       # average ReadReq mshr miss latency ((Tick/Count))
system.cpu.icache.power_state.pwrStateResidencyTicks::UNDEFINED 201216289500                       # Cumulative time (in ticks) in various power states (Tick)
system.cpu.icache.tags.tagsInUse           471.636013                       # Average ticks per tags in use ((Tick/Count))
system.cpu.icache.tags.totalRefs               304902                       # Total number of references to valid blocks. (Count)
system.cpu.icache.tags.sampledRefs                722                       # Sample count of references to valid blocks. (Count)
system.cpu.icache.tags.avgRefs             422.301939                       # Average number of references to valid blocks. ((Count/Count))
system.cpu.icache.tags.warmupTick               87500                       # The tick when the warmup percentage was hit. (Tick)
system.cpu.icache.tags.occupancies::cpu.inst   471.636013                       # Average occupied blocks per tick, per requestor ((Count/Tick))
system.cpu.icache.tags.avgOccs::cpu.inst     0.921164                       # Average percentage of cache occupancy ((Ratio/Tick))
system.cpu.icache.tags.avgOccs::total        0.921164                       # Average percentage of cache occupancy ((Ratio/Tick))
system.cpu.icache.tags.occupanciesTaskId::1024          507                       # Occupied blocks per task id (Count)
system.cpu.icache.tags.ageTaskId_1024::4          507                       # Occupied blocks per task id, per block age (Count)
system.cpu.icache.tags.ratioOccsTaskId::1024     0.990234                       # Ratio of occupied blocks and all blocks, per task id (Ratio)
system.cpu.icache.tags.tagAccesses            2442810                       # Number of tag accesses (Count)
system.cpu.icache.tags.dataAccesses           2442810                       # Number of data accesses (Count)
system.cpu.icache.tags.power_state.pwrStateResidencyTicks::UNDEFINED 201216289500                       # Cumulative time (in ticks) in various power states (Tick)
system.cpu.lsq0.forwLoads                      184198                       # Number of loads that had data forwarded from stores (Count)
system.cpu.lsq0.squashedLoads                   17810                       # Number of loads squashed (Count)
system.cpu.lsq0.ignoredResponses                   44                       # Number of memory responses ignored because the instruction is squashed (Count)
system.cpu.lsq0.memOrderViolation                 176                       # Number of memory ordering violations (Count)
system.cpu.lsq0.squashedStores                1457726                       # Number of stores squashed (Count)
system.cpu.lsq0.rescheduledLoads                  124                       # Number of loads that were rescheduled (Count)
system.cpu.lsq0.blockedByCache                    170                       # Number of times an access to memory failed due to the cache being blocked (Count)
system.cpu.lsq0.loadToUse::samples            1972953                       # Distribution of cycle latency between the first time a load is issued and its completion
system.cpu.lsq0.loadToUse::mean              3.488069                       # Distribution of cycle latency between the first time a load is issued and its completion
system.cpu.lsq0.loadToUse::stdev             4.821133                       # Distribution of cycle latency between the first time a load is issued and its completion
system.cpu.lsq0.loadToUse::0-9                1971146     99.91%     99.91% # Distribution of cycle latency between the first time a load is issued and its completion
system.cpu.lsq0.loadToUse::10-19                   45      0.00%     99.91% # Distribution of cycle latency between the first time a load is issued and its completion
system.cpu.lsq0.loadToUse::20-29                   52      0.00%     99.91% # Distribution of cycle latency between the first time a load is issued and its completion
system.cpu.lsq0.loadToUse::30-39                    7      0.00%     99.91% # Distribution of cycle latency between the first time a load is issued and its completion
system.cpu.lsq0.loadToUse::40-49                   15      0.00%     99.91% # Distribution of cycle latency between the first time a load is issued and its completion
system.cpu.lsq0.loadToUse::50-59                    3      0.00%     99.91% # Distribution of cycle latency between the first time a load is issued and its completion
system.cpu.lsq0.loadToUse::60-69                    6      0.00%     99.91% # Distribution of cycle latency between the first time a load is issued and its completion
system.cpu.lsq0.loadToUse::70-79                    2      0.00%     99.92% # Distribution of cycle latency between the first time a load is issued and its completion
system.cpu.lsq0.loadToUse::80-89                   16      0.00%     99.92% # Distribution of cycle latency between the first time a load is issued and its completion
system.cpu.lsq0.loadToUse::90-99                    4      0.00%     99.92% # Distribution of cycle latency between the first time a load is issued and its completion
system.cpu.lsq0.loadToUse::100-109                 82      0.00%     99.92% # Distribution of cycle latency between the first time a load is issued and its completion
system.cpu.lsq0.loadToUse::110-119                374      0.02%     99.94% # Distribution of cycle latency between the first time a load is issued and its completion
system.cpu.lsq0.loadToUse::120-129                533      0.03%     99.97% # Distribution of cycle latency between the first time a load is issued and its completion
system.cpu.lsq0.loadToUse::130-139                161      0.01%     99.97% # Distribution of cycle latency between the first time a load is issued and its completion
system.cpu.lsq0.loadToUse::140-149                149      0.01%     99.98% # Distribution of cycle latency between the first time a load is issued and its completion
system.cpu.lsq0.loadToUse::150-159                123      0.01%     99.99% # Distribution of cycle latency between the first time a load is issued and its completion
system.cpu.lsq0.loadToUse::160-169                 19      0.00%     99.99% # Distribution of cycle latency between the first time a load is issued and its completion
system.cpu.lsq0.loadToUse::170-179                 43      0.00%     99.99% # Distribution of cycle latency between the first time a load is issued and its completion
system.cpu.lsq0.loadToUse::180-189                 13      0.00%     99.99% # Distribution of cycle latency between the first time a load is issued and its completion
system.cpu.lsq0.loadToUse::190-199                 17      0.00%     99.99% # Distribution of cycle latency between the first time a load is issued and its completion
system.cpu.lsq0.loadToUse::200-209                 63      0.00%    100.00% # Distribution of cycle latency between the first time a load is issued and its completion
system.cpu.lsq0.loadToUse::210-219                 25      0.00%    100.00% # Distribution of cycle latency between the first time a load is issued and its completion
system.cpu.lsq0.loadToUse::220-229                  4      0.00%    100.00% # Distribution of cycle latency between the first time a load is issued and its completion
system.cpu.lsq0.loadToUse::250-259                  1      0.00%    100.00% # Distribution of cycle latency between the first time a load is issued and its completion
system.cpu.lsq0.loadToUse::260-269                  2      0.00%    100.00% # Distribution of cycle latency between the first time a load is issued and its completion
system.cpu.lsq0.loadToUse::280-289                  1      0.00%    100.00% # Distribution of cycle latency between the first time a load is issued and its completion
system.cpu.lsq0.loadToUse::290-299                  3      0.00%    100.00% # Distribution of cycle latency between the first time a load is issued and its completion
system.cpu.lsq0.loadToUse::overflows               44      0.00%    100.00% # Distribution of cycle latency between the first time a load is issued and its completion
system.cpu.lsq0.loadToUse::min_value                1                       # Distribution of cycle latency between the first time a load is issued and its completion
system.cpu.lsq0.loadToUse::max_value             1196                       # Distribution of cycle latency between the first time a load is issued and its completion
system.cpu.lsq0.loadToUse::total              1972953                       # Distribution of cycle latency between the first time a load is issued and its completion
system.cpu.mmu.dtb.instHits                         0                       # ITB inst hits (Count)
system.cpu.mmu.dtb.instMisses                       0                       # ITB inst misses (Count)
system.cpu.mmu.dtb.readHits                         0                       # DTB read hits (Count)
system.cpu.mmu.dtb.readMisses                       0                       # DTB read misses (Count)
system.cpu.mmu.dtb.writeHits                        0                       # DTB write hits (Count)
[...]
system.mem_ctrls.dram.perBankWrBursts::7       330690                       # Per bank write bursts (Count)
system.mem_ctrls.dram.perBankWrBursts::8       330841                       # Per bank write bursts (Count)
system.mem_ctrls.dram.perBankWrBursts::9       330762                       # Per bank write bursts (Count)
system.mem_ctrls.dram.perBankWrBursts::10       330808                       # Per bank write bursts (Count)
system.mem_ctrls.dram.perBankWrBursts::11       330822                       # Per bank write bursts (Count)
system.mem_ctrls.dram.perBankWrBursts::12       330827                       # Per bank write bursts (Count)
system.mem_ctrls.dram.perBankWrBursts::13       330703                       # Per bank write bursts (Count)
system.mem_ctrls.dram.perBankWrBursts::14       330624                       # Per bank write bursts (Count)
system.mem_ctrls.dram.perBankWrBursts::15       330624                       # Per bank write bursts (Count)
system.mem_ctrls.dram.totQLat            158315634750                       # Total ticks spent queuing (Tick)
system.mem_ctrls.dram.totBusLat           26625130000                       # Total ticks spent in databus transfers (Tick)
system.mem_ctrls.dram.totMemAccLat       258159872250                       # Total ticks spent from burst creation until serviced by the DRAM (Tick)
system.mem_ctrls.dram.avgQLat                29730.49                       # Average queueing delay per DRAM burst ((Tick/Count))
system.mem_ctrls.dram.avgBusLat               5000.00                       # Average bus latency per DRAM burst ((Tick/Count))
system.mem_ctrls.dram.avgMemAccLat           48480.49                       # Average memory access latency per DRAM burst ((Tick/Count))
system.mem_ctrls.dram.readRowHits             4855499                       # Number of row buffer hits during reads (Count)
system.mem_ctrls.dram.writeRowHits            4916459                       # Number of row buffer hits during writes (Count)
system.mem_ctrls.dram.readRowHitRate            91.18                       # Row buffer hit rate for reads (Ratio)
system.mem_ctrls.dram.writeRowHitRate           92.92                       # Row buffer hit rate for writes (Ratio)
system.mem_ctrls.dram.bytesPerActivate::samples       844337                       # Bytes accessed per row activation (Byte)
system.mem_ctrls.dram.bytesPerActivate::mean   804.704207                       # Bytes accessed per row activation (Byte)
system.mem_ctrls.dram.bytesPerActivate::gmean   672.391001                       # Bytes accessed per row activation (Byte)
system.mem_ctrls.dram.bytesPerActivate::stdev   327.013169                       # Bytes accessed per row activation (Byte)
system.mem_ctrls.dram.bytesPerActivate::0-127        17944      2.13%      2.13% # Bytes accessed per row activation (Byte)
system.mem_ctrls.dram.bytesPerActivate::128-255        96624     11.44%     13.57% # Bytes accessed per row activation (Byte)
system.mem_ctrls.dram.bytesPerActivate::256-383        15501      1.84%     15.40% # Bytes accessed per row activation (Byte)
system.mem_ctrls.dram.bytesPerActivate::384-511        37686      4.46%     19.87% # Bytes accessed per row activation (Byte)
system.mem_ctrls.dram.bytesPerActivate::512-639        44781      5.30%     25.17% # Bytes accessed per row activation (Byte)
system.mem_ctrls.dram.bytesPerActivate::640-767        24153      2.86%     28.03% # Bytes accessed per row activation (Byte)
system.mem_ctrls.dram.bytesPerActivate::768-895        24903      2.95%     30.98% # Bytes accessed per row activation (Byte)
system.mem_ctrls.dram.bytesPerActivate::896-1023       174546     20.67%     51.65% # Bytes accessed per row activation (Byte)
system.mem_ctrls.dram.bytesPerActivate::1024-1151       408199     48.35%    100.00% # Bytes accessed per row activation (Byte)
system.mem_ctrls.dram.bytesPerActivate::total       844337                       # Bytes accessed per row activation (Byte)
system.mem_ctrls.dram.bytesRead             340801664                       # Total number of bytes read from DRAM (Byte)
system.mem_ctrls.dram.bytesWritten          338641344                       # Total number of bytes written to DRAM (Byte)
system.mem_ctrls.dram.avgRdBW             1693.708123                       # Average DRAM read bandwidth in MiBytes/s ((Byte/Second))
system.mem_ctrls.dram.avgWrBW             1682.971815                       # Average DRAM write bandwidth in MiBytes/s ((Byte/Second))
system.mem_ctrls.dram.peakBW                 12800.00                       # Theoretical peak bandwidth in MiByte/s ((Byte/Second))
system.mem_ctrls.dram.busUtil                   26.38                       # Data bus utilization in percentage (Ratio)
system.mem_ctrls.dram.busUtilRead               13.23                       # Data bus utilization in percentage for reads (Ratio)
system.mem_ctrls.dram.busUtilWrite              13.15                       # Data bus utilization in percentage for writes (Ratio)
system.mem_ctrls.dram.pageHitRate               92.05                       # Row buffer hit rate, read and write combined (Ratio)
system.mem_ctrls.dram.power_state.pwrStateResidencyTicks::UNDEFINED 201216289500                       # Cumulative time (in ticks) in various power states (Tick)
system.mem_ctrls.dram.rank0.actEnergy      3013736880                       # Energy for activate commands per rank (pJ) (Joule)
system.mem_ctrls.dram.rank0.preEnergy      1601831550                       # Energy for precharge commands per rank (pJ) (Joule)
system.mem_ctrls.dram.rank0.readEnergy    19008115140                       # Energy for read commands per rank (pJ) (Joule)
system.mem_ctrls.dram.rank0.writeEnergy   13808257200                       # Energy for write commands per rank (pJ) (Joule)
system.mem_ctrls.dram.rank0.refreshEnergy 15883526880.000002                       # Energy for refresh commands per rank (pJ) (Joule)
system.mem_ctrls.dram.rank0.actBackEnergy  51268183170                       # Energy for active background per rank (pJ) (Joule)
system.mem_ctrls.dram.rank0.preBackEnergy  34093848480                       # Energy for precharge background per rank (pJ) (Joule)
system.mem_ctrls.dram.rank0.actPowerDownEnergy            0                       # Energy for active power-down per rank (pJ) (Joule)
system.mem_ctrls.dram.rank0.prePowerDownEnergy            0                       # Energy for precharge power-down per rank (pJ) (Joule)
system.mem_ctrls.dram.rank0.selfRefreshEnergy            0                       # Energy for self refresh per rank (pJ) (Joule)
system.mem_ctrls.dram.rank0.totalEnergy  138677499300                       # Total energy per rank (pJ) (Joule)
system.mem_ctrls.dram.rank0.averagePower   689.196186                       # Core power per rank (mW) (Watt)
system.mem_ctrls.dram.rank0.totalIdleTime            0                       # Total Idle time Per DRAM Rank (Tick)
system.mem_ctrls.dram.rank0.pwrStateTime::IDLE  86482633000                       # Time in different power states (Tick)
system.mem_ctrls.dram.rank0.pwrStateTime::REF   6718920000                       # Time in different power states (Tick)
system.mem_ctrls.dram.rank0.pwrStateTime::SREF            0                       # Time in different power states (Tick)
system.mem_ctrls.dram.rank0.pwrStateTime::PRE_PDN            0                       # Time in different power states (Tick)
system.mem_ctrls.dram.rank0.pwrStateTime::ACT 108014736500                       # Time in different power states (Tick)
system.mem_ctrls.dram.rank0.pwrStateTime::ACT_PDN            0                       # Time in different power states (Tick)
system.mem_ctrls.dram.rank1.actEnergy      3014843580                       # Energy for activate commands per rank (pJ) (Joule)
system.mem_ctrls.dram.rank1.preEnergy      1602427365                       # Energy for precharge commands per rank (pJ) (Joule)
system.mem_ctrls.dram.rank1.readEnergy    19012570500                       # Energy for read commands per rank (pJ) (Joule)
system.mem_ctrls.dram.rank1.writeEnergy   13812177420                       # Energy for write commands per rank (pJ) (Joule)
system.mem_ctrls.dram.rank1.refreshEnergy 15883526880.000002                       # Energy for refresh commands per rank (pJ) (Joule)
system.mem_ctrls.dram.rank1.actBackEnergy  51196721130                       # Energy for active background per rank (pJ) (Joule)
system.mem_ctrls.dram.rank1.preBackEnergy  34154027040                       # Energy for precharge background per rank (pJ) (Joule)
system.mem_ctrls.dram.rank1.actPowerDownEnergy            0                       # Energy for active power-down per rank (pJ) (Joule)
system.mem_ctrls.dram.rank1.prePowerDownEnergy            0                       # Energy for precharge power-down per rank (pJ) (Joule)
system.mem_ctrls.dram.rank1.selfRefreshEnergy            0                       # Energy for self refresh per rank (pJ) (Joule)
system.mem_ctrls.dram.rank1.totalEnergy  138676293915                       # Total energy per rank (pJ) (Joule)
system.mem_ctrls.dram.rank1.averagePower   689.190196                       # Core power per rank (mW) (Watt)
system.mem_ctrls.dram.rank1.totalIdleTime            0                       # Total Idle time Per DRAM Rank (Tick)
system.mem_ctrls.dram.rank1.pwrStateTime::IDLE  86641640250                       # Time in different power states (Tick)
system.mem_ctrls.dram.rank1.pwrStateTime::REF   6718920000                       # Time in different power states (Tick)
system.mem_ctrls.dram.rank1.pwrStateTime::SREF            0                       # Time in different power states (Tick)
system.mem_ctrls.dram.rank1.pwrStateTime::PRE_PDN            0                       # Time in different power states (Tick)
system.mem_ctrls.dram.rank1.pwrStateTime::ACT 107855729250                       # Time in different power states (Tick)
system.mem_ctrls.dram.rank1.pwrStateTime::ACT_PDN            0                       # Time in different power states (Tick)
system.mem_ctrls.power_state.pwrStateResidencyTicks::UNDEFINED 201216289500                       # Cumulative time (in ticks) in various power states (Tick)
system.membus.transDist::ReadResp                 989                       # Transaction distribution (Count)
system.membus.transDist::WritebackDirty       5291303                       # Transaction distribution (Count)
system.membus.transDist::CleanEvict               431                       # Transaction distribution (Count)
system.membus.transDist::ReadExReq            5324037                       # Transaction distribution (Count)
system.membus.transDist::ReadExResp           5324037                       # Transaction distribution (Count)
system.membus.transDist::ReadSharedReq            989                       # Transaction distribution (Count)
system.membus.pktCount_system.l2.mem_side_port::system.mem_ctrls.port     15941786                       # Packet count per connected requestor and responder (Count)
system.membus.pktCount::total                15941786                       # Packet count per connected requestor and responder (Count)
system.membus.pktSize_system.l2.mem_side_port::system.mem_ctrls.port    679445056                       # Cumulative packet size per connected requestor and responder (Byte)
system.membus.pktSize::total                679445056                       # Cumulative packet size per connected requestor and responder (Byte)
system.membus.snoops                                0                       # Total snoops (Count)
system.membus.snoopTraffic                          0                       # Total snoop traffic (Byte)
system.membus.snoopFanout::samples            5325026                       # Request fanout histogram (Count)
system.membus.snoopFanout::mean                     0                       # Request fanout histogram (Count)
system.membus.snoopFanout::stdev                    0                       # Request fanout histogram (Count)
system.membus.snoopFanout::underflows               0      0.00%      0.00% # Request fanout histogram (Count)
system.membus.snoopFanout::0                  5325026    100.00%    100.00% # Request fanout histogram (Count)
system.membus.snoopFanout::1                        0      0.00%    100.00% # Request fanout histogram (Count)
system.membus.snoopFanout::overflows                0      0.00%    100.00% # Request fanout histogram (Count)
system.membus.snoopFanout::min_value                0                       # Request fanout histogram (Count)
system.membus.snoopFanout::max_value                0                       # Request fanout histogram (Count)
system.membus.snoopFanout::total              5325026                       # Request fanout histogram (Count)
system.membus.power_state.pwrStateResidencyTicks::UNDEFINED 201216289500                       # Cumulative time (in ticks) in various power states (Tick)
system.membus.reqLayer0.occupancy         33675616500                       # Layer occupancy (ticks) (Tick)
system.membus.reqLayer0.utilization               0.2                       # Layer utilization (Ratio)
system.membus.respLayer1.occupancy        27338279750                       # Layer occupancy (ticks) (Tick)
system.membus.respLayer1.utilization              0.1                       # Layer utilization (Ratio)
system.membus.snoop_filter.totRequests       10616760                       # Total number of requests made to the snoop filter. (Count)
system.membus.snoop_filter.hitSingleRequests      5291751                       # Number of requests hitting in the snoop filter with a single holder of the requested data. (Count)
system.membus.snoop_filter.hitMultiRequests            0                       # Number of requests hitting in the snoop filter with multiple (>1) holders of the requested data. (Count)
system.membus.snoop_filter.totSnoops                0                       # Total number of snoops made to the snoop filter. (Count)
system.membus.snoop_filter.hitSingleSnoops            0                       # Number of snoops hitting in the snoop filter with a single holder of the requested data. (Count)
system.membus.snoop_filter.hitMultiSnoops            0                       # Number of snoops hitting in the snoop filter with multiple (>1) holders of the requested data. (Count)
system.tol2bus.transDist::ReadResp               1118                       # Transaction distribution (Count)
system.tol2bus.transDist::WritebackDirty     10614378                       # Transaction distribution (Count)
system.tol2bus.transDist::WritebackClean          215                       # Transaction distribution (Count)
system.tol2bus.transDist::CleanEvict             1465                       # Transaction distribution (Count)
system.tol2bus.transDist::ReadExReq           5324048                       # Transaction distribution (Count)
system.tol2bus.transDist::ReadExResp          5324048                       # Transaction distribution (Count)
system.tol2bus.transDist::ReadCleanReq            722                       # Transaction distribution (Count)
system.tol2bus.transDist::ReadSharedReq           396                       # Transaction distribution (Count)
system.tol2bus.pktCount_system.cpu.icache.mem_side_port::system.l2.cpu_side_port         1659                       # Packet count per connected requestor and responder (Count)
system.tol2bus.pktCount_system.cpu.dcache.mem_side_port::system.l2.cpu_side_port     15972307                       # Packet count per connected requestor and responder (Count)
system.tol2bus.pktCount::total               15973966                       # Packet count per connected requestor and responder (Count)
system.tol2bus.pktSize_system.cpu.icache.mem_side_port::system.l2.cpu_side_port        59968                       # Cumulative packet size per connected requestor and responder (Byte)
system.tol2bus.pktSize_system.cpu.dcache.mem_side_port::system.l2.cpu_side_port    681441216                       # Cumulative packet size per connected requestor and responder (Byte)
system.tol2bus.pktSize::total               681501184                       # Cumulative packet size per connected requestor and responder (Byte)
system.tol2bus.snoops                         5292424                       # Total snoops (Count)
system.tol2bus.snoopTraffic                 338643392                       # Total snoop traffic (Byte)
system.tol2bus.snoopFanout::samples          10617590                       # Request fanout histogram (Count)
system.tol2bus.snoopFanout::mean             0.000074                       # Request fanout histogram (Count)
system.tol2bus.snoopFanout::stdev            0.008626                       # Request fanout histogram (Count)
system.tol2bus.snoopFanout::underflows              0      0.00%      0.00% # Request fanout histogram (Count)
system.tol2bus.snoopFanout::0                10616800     99.99%     99.99% # Request fanout histogram (Count)
system.tol2bus.snoopFanout::1                     790      0.01%    100.00% # Request fanout histogram (Count)
system.tol2bus.snoopFanout::2                       0      0.00%    100.00% # Request fanout histogram (Count)
system.tol2bus.snoopFanout::overflows               0      0.00%    100.00% # Request fanout histogram (Count)
system.tol2bus.snoopFanout::min_value               0                       # Request fanout histogram (Count)
system.tol2bus.snoopFanout::max_value               1                       # Request fanout histogram (Count)
system.tol2bus.snoopFanout::total            10617590                       # Request fanout histogram (Count)
system.tol2bus.power_state.pwrStateResidencyTicks::UNDEFINED 201216289500                       # Cumulative time (in ticks) in various power states (Tick)
system.tol2bus.reqLayer0.occupancy        10647690000                       # Layer occupancy (ticks) (Tick)
system.tol2bus.reqLayer0.utilization              0.1                       # Layer utilization (Ratio)
system.tol2bus.respLayer0.occupancy           1083998                       # Layer occupancy (ticks) (Tick)
system.tol2bus.respLayer0.utilization             0.0                       # Layer utilization (Ratio)
system.tol2bus.respLayer1.occupancy        7986670990                       # Layer occupancy (ticks) (Tick)
system.tol2bus.respLayer1.utilization             0.0                       # Layer utilization (Ratio)
system.tol2bus.snoop_filter.totRequests      10648800                       # Total number of requests made to the snoop filter. (Count)
system.tol2bus.snoop_filter.hitSingleRequests      5323634                       # Number of requests hitting in the snoop filter with a single holder of the requested data. (Count)
system.tol2bus.snoop_filter.hitMultiRequests          100                       # Number of requests hitting in the snoop filter with multiple (>1) holders of the requested data. (Count)
system.tol2bus.snoop_filter.totSnoops             690                       # Total number of snoops made to the snoop filter. (Count)
system.tol2bus.snoop_filter.hitSingleSnoops          690                       # Number of snoops hitting in the snoop filter with a single holder of the requested data. (Count)
system.tol2bus.snoop_filter.hitMultiSnoops            0                       # Number of snoops hitting in the snoop filter with multiple (>1) holders of the requested data. (Count)
system.voltage_domain.voltage                       1                       # Voltage in Volts (Volt)
system.workload.inst.arm                            0                       # number of arm instructions executed (Count)
system.workload.inst.quiesce                        0                       # number of quiesce instructions executed (Count)

---------- End Simulation Statistics   ----------
