
---------- Begin Simulation Statistics ----------
simSeconds                                   0.200860                       # Number of seconds simulated (Second)
simTicks                                 200860463500                       # Number of ticks simulated (Tick)
finalTick                                200860463500                       # Number of ticks from beginning of simulation (restored from checkpoints and never reset) (Tick)
simFreq                                  1000000000000                       # The number of ticks per simulated second ((Tick/Second))
hostSeconds                                   1541.02                       # Real time elapsed on the host (Second)
hostTickRate                                130342357                       # The number of ticks simulated per host second (ticks/s) ((Tick/Second))
hostMemory                                     746728                       # Number of bytes of host memory used (Byte)
simInsts                                    100000001                       # Number of instructions simulated (Count)
simOps                                      185151994                       # Number of ops (including micro ops) simulated (Count)
hostInstRate                                    64892                       # Simulator instruction rate (inst/s) ((Count/Second))
hostOpRate                                     120149                       # Simulator op (including micro ops) rate (op/s) ((Count/Second))
system.clk_domain.clock                          1000                       # Clock period in ticks (Tick)
system.cpu.numCycles                        401720928                       # Number of cpu cycles simulated (Cycle)
system.cpu.numWorkItemsStarted                      0                       # Number of work items this cpu started (Count)
system.cpu.numWorkItemsCompleted                    0                       # Number of work items this cpu completed (Count)
system.cpu.instsAdded                       188240640                       # Number of instructions added to the IQ (excludes non-spec) (Count)
system.cpu.nonSpecInstsAdded                      105                       # Number of non-speculative instructions added to the IQ (Count)
system.cpu.instsIssued                      188215799                       # Number of instructions issued (Count)
system.cpu.squashedInstsIssued                    193                       # Number of squashed instructions issued (Count)
system.cpu.squashedInstsExamined              3088732                       # Number of squashed instructions iterated over during squash; mainly for profiling (Count)
system.cpu.squashedOperandsExamined           4243367                       # Number of squashed operands that are examined and possibly removed from graph (Count)
system.cpu.squashedNonSpecRemoved                  18                       # Number of squashed non-spec instructions that were removed (Count)
system.cpu.numIssuedDist::samples           401661919                       # Number of insts issued each cycle (Count)
system.cpu.numIssuedDist::mean               0.468593                       # Number of insts issued each cycle (Count)
system.cpu.numIssuedDist::stdev              1.264115                       # Number of insts issued each cycle (Count)
system.cpu.numIssuedDist::underflows                0      0.00%      0.00% # Number of insts issued each cycle (Count)
system.cpu.numIssuedDist::0                 345496508     86.02%     86.02% # Number of insts issued each cycle (Count)
system.cpu.numIssuedDist::1                  10843458      2.70%     88.72% # Number of insts issued each cycle (Count)
system.cpu.numIssuedDist::2                   2090394      0.52%     89.24% # Number of insts issued each cycle (Count)
system.cpu.numIssuedDist::3                   8204639      2.04%     91.28% # Number of insts issued each cycle (Count)
system.cpu.numIssuedDist::4                  26698436      6.65%     97.93% # Number of insts issued each cycle (Count)
system.cpu.numIssuedDist::5                   8214717      2.05%     99.97% # Number of insts issued each cycle (Count)
system.cpu.numIssuedDist::6                     86565      0.02%     99.99% # Number of insts issued each cycle (Count)
system.cpu.numIssuedDist::7                     26699      0.01%    100.00% # Number of insts issued each cycle (Count)
system.cpu.numIssuedDist::8                       503      0.00%    100.00% # Number of insts issued each cycle (Count)
system.cpu.numIssuedDist::overflows                 0      0.00%    100.00% # Number of insts issued each cycle (Count)
system.cpu.numIssuedDist::min_value                 0                       # Number of insts issued each cycle (Count)
system.cpu.numIssuedDist::max_value                 8                       # Number of insts issued each cycle (Count)
system.cpu.numIssuedDist::total             401661919                       # Number of insts issued each cycle (Count)
system.cpu.statFuBusy::No_OpClass                   0      0.00%      0.00% # attempts to use FU when none available (Count)
system.cpu.statFuBusy::IntAlu                     126      0.17%      0.17% # attempts to use FU when none available (Count)
system.cpu.statFuBusy::IntMult                      0      0.00%      0.17% # attempts to use FU when none available (Count)
system.cpu.statFuBusy::IntDiv                       0      0.00%      0.17% # attempts to use FU when none available (Count)
system.cpu.statFuBusy::FloatAdd                     0      0.00%      0.17% # attempts to use FU when none available (Count)
system.cpu.statFuBusy::FloatCmp                     0      0.00%      0.17% # attempts to use FU when none available (Count)
system.cpu.statFuBusy::FloatCvt                     0      0.00%      0.17% # attempts to use FU when none available (Count)
system.cpu.statFuBusy::FloatMult                    0      0.00%      0.17% # attempts to use FU when none available (Count)
system.cpu.statFuBusy::FloatMultAcc                 0      0.00%      0.17% # attempts to use FU when none available (Count)
system.cpu.statFuBusy::FloatDiv                     0      0.00%      0.17% # attempts to use FU when none available (Count)
system.cpu.statFuBusy::FloatMisc                    0      0.00%      0.17% # attempts to use FU when none available (Count)
system.cpu.statFuBusy::FloatSqrt                    0      0.00%      0.17% # attempts to use FU when none available (Count)
system.cpu.statFuBusy::SimdAdd                      0      0.00%      0.17% # attempts to use FU when none available (Count)
system.cpu.statFuBusy::SimdAddAcc                   0      0.00%      0.17% # attempts to use FU when none available (Count)
system.cpu.statFuBusy::SimdAlu                      0      0.00%      0.17% # attempts to use FU when none available (Count)
system.cpu.statFuBusy::SimdCmp                      0      0.00%      0.17% # attempts to use FU when none available (Count)
system.cpu.statFuBusy::SimdCvt                      0      0.00%      0.17% # attempts to use FU when none available (Count)
system.cpu.statFuBusy::SimdMisc                     0      0.00%      0.17% # attempts to use FU when none available (Count)
system.cpu.statFuBusy::SimdMult                     0      0.00%      0.17% # attempts to use FU when none available (Count)
system.cpu.statFuBusy::SimdMultAcc                  0      0.00%      0.17% # attempts to use FU when none available (Count)
system.cpu.statFuBusy::SimdShift                    0      0.00%      0.17% # attempts to use FU when none available (Count)
system.cpu.statFuBusy::SimdShiftAcc                 0      0.00%      0.17% # attempts to use FU when none available (Count)
system.cpu.statFuBusy::SimdDiv                      0      0.00%      0.17% # attempts to use FU when none available (Count)
system.cpu.statFuBusy::SimdSqrt                     0      0.00%      0.17% # attempts to use FU when none available (Count)
system.cpu.statFuBusy::SimdFloatAdd                 0      0.00%      0.17% # attempts to use FU when none available (Count)
system.cpu.statFuBusy::SimdFloatAlu                 0      0.00%      0.17% # attempts to use FU when none available (Count)
system.cpu.statFuBusy::SimdFloatCmp                 0      0.00%      0.17% # attempts to use FU when none available (Count)
system.cpu.statFuBusy::SimdFloatCvt                 0      0.00%      0.17% # attempts to use FU when none available (Count)
system.cpu.statFuBusy::SimdFloatDiv                 0      0.00%      0.17% # attempts to use FU when none available (Count)
system.cpu.statFuBusy::SimdFloatMisc                0      0.00%      0.17% # attempts to use FU when none available (Count)
system.cpu.statFuBusy::SimdFloatMult                0      0.00%      0.17% # attempts to use FU when none available (Count)
system.cpu.statFuBusy::SimdFloatMultAcc             0      0.00%      0.17% # attempts to use FU when none available (Count)
system.cpu.statFuBusy::SimdFloatSqrt                0      0.00%      0.17% # attempts to use FU when none available (Count)
system.cpu.statFuBusy::SimdReduceAdd                0      0.00%      0.17% # attempts to use FU when none available (Count)
system.cpu.statFuBusy::SimdReduceAlu                0      0.00%      0.17% # attempts to use FU when none available (Count)
system.cpu.statFuBusy::SimdReduceCmp                0      0.00%      0.17% # attempts to use FU when none available (Count)
system.cpu.statFuBusy::SimdFloatReduceAdd            0      0.00%      0.17% # attempts to use FU when none available (Count)
system.cpu.statFuBusy::SimdFloatReduceCmp            0      0.00%      0.17% # attempts to use FU when none available (Count)
system.cpu.statFuBusy::SimdAes                      0      0.00%      0.17% # attempts to use FU when none available (Count)
system.cpu.statFuBusy::SimdAesMix                   0      0.00%      0.17% # attempts to use FU when none available (Count)
system.cpu.statFuBusy::SimdSha1Hash                 0      0.00%      0.17% # attempts to use FU when none available (Count)
system.cpu.statFuBusy::SimdSha1Hash2                0      0.00%      0.17% # attempts to use FU when none available (Count)
system.cpu.statFuBusy::SimdSha256Hash               0      0.00%      0.17% # attempts to use FU when none available (Count)
system.cpu.statFuBusy::SimdSha256Hash2              0      0.00%      0.17% # attempts to use FU when none available (Count)
system.cpu.statFuBusy::SimdShaSigma2                0      0.00%      0.17% # attempts to use FU when none available (Count)
system.cpu.statFuBusy::SimdShaSigma3                0      0.00%      0.17% # attempts to use FU when none available (Count)
system.cpu.statFuBusy::SimdPredAlu                  0      0.00%      0.17% # attempts to use FU when none available (Count)
system.cpu.statFuBusy::MemRead                  71548     98.74%     98.91% # attempts to use FU when none available (Count)
system.cpu.statFuBusy::MemWrite                   787      1.09%    100.00% # attempts to use FU when none available (Count)
system.cpu.statFuBusy::FloatMemRead                 0      0.00%    100.00% # attempts to use FU when none available (Count)
system.cpu.statFuBusy::FloatMemWrite                0      0.00%    100.00% # attempts to use FU when none available (Count)
system.cpu.statFuBusy::IprAccess                    0      0.00%    100.00% # attempts to use FU when none available (Count)
system.cpu.statFuBusy::InstPrefetch                 0      0.00%    100.00% # attempts to use FU when none available (Count)
system.cpu.statIssuedInstType_0::No_OpClass            4      0.00%      0.00% # Number of instructions issued per FU type, per thread (Count)
system.cpu.statIssuedInstType_0::IntAlu      99460739     52.84%     52.84% # Number of instructions issued per FU type, per thread (Count)
system.cpu.statIssuedInstType_0::IntMult           81      0.00%     52.84% # Number of instructions issued per FU type, per thread (Count)
system.cpu.statIssuedInstType_0::IntDiv             0      0.00%     52.84% # Number of instructions issued per FU type, per thread (Count)
system.cpu.statIssuedInstType_0::FloatAdd            0      0.00%     52.84% # Number of instructions issued per FU type, per thread (Count)
system.cpu.statIssuedInstType_0::FloatCmp            0      0.00%     52.84% # Number of instructions issued per FU type, per thread (Count)
system.cpu.statIssuedInstType_0::FloatCvt            0      0.00%     52.84% # Number of instructions issued per FU type, per thread (Count)
system.cpu.statIssuedInstType_0::FloatMult            0      0.00%     52.84% # Number of instructions issued per FU type, per thread (Count)
system.cpu.statIssuedInstType_0::FloatMultAcc            0      0.00%     52.84% # Number of instructions issued per FU type, per thread (Count)
system.cpu.statIssuedInstType_0::FloatDiv            0      0.00%     52.84% # Number of instructions issued per FU type, per thread (Count)
system.cpu.statIssuedInstType_0::FloatMisc            0      0.00%     52.84% # Number of instructions issued per FU type, per thread (Count)
system.cpu.statIssuedInstType_0::FloatSqrt            0      0.00%     52.84% # Number of instructions issued per FU type, per thread (Count)
system.cpu.statIssuedInstType_0::SimdAdd            0      0.00%     52.84% # Number of instructions issued per FU type, per thread (Count)
system.cpu.statIssuedInstType_0::SimdAddAcc            0      0.00%     52.84% # Number of instructions issued per FU type, per thread (Count)
system.cpu.statIssuedInstType_0::SimdAlu            0      0.00%     52.84% # Number of instructions issued per FU type, per thread (Count)
system.cpu.statIssuedInstType_0::SimdCmp            0      0.00%     52.84% # Number of instructions issued per FU type, per thread (Count)
system.cpu.statIssuedInstType_0::SimdCvt            0      0.00%     52.84% # Number of instructions issued per FU type, per thread (Count)
system.cpu.statIssuedInstType_0::SimdMisc            0      0.00%     52.84% # Number of instructions issued per FU type, per thread (Count)
system.cpu.statIssuedInstType_0::SimdMult            0      0.00%     52.84% # Number of instructions issued per FU type, per thread (Count)
system.cpu.statIssuedInstType_0::SimdMultAcc            0      0.00%     52.84% # Number of instructions issued per FU type, per thread (Count)
system.cpu.statIssuedInstType_0::SimdShift            0      0.00%     52.84% # Number of instructions issued per FU type, per thread (Count)
system.cpu.statIssuedInstType_0::SimdShiftAcc            0      0.00%     52.84% # Number of instructions issued per FU type, per thread (Count)
system.cpu.statIssuedInstType_0::SimdDiv            0      0.00%     52.84% # Number of instructions issued per FU type, per thread (Count)
system.cpu.statIssuedInstType_0::SimdSqrt            0      0.00%     52.84% # Number of instructions issued per FU type, per thread (Count)
system.cpu.statIssuedInstType_0::SimdFloatAdd            0      0.00%     52.84% # Number of instructions issued per FU type, per thread (Count)
system.cpu.statIssuedInstType_0::SimdFloatAlu            0      0.00%     52.84% # Number of instructions issued per FU type, per thread (Count)
system.cpu.statIssuedInstType_0::SimdFloatCmp            0      0.00%     52.84% # Number of instructions issued per FU type, per thread (Count)
system.cpu.statIssuedInstType_0::SimdFloatCvt            0      0.00%     52.84% # Number of instructions issued per FU type, per thread (Count)
system.cpu.statIssuedInstType_0::SimdFloatDiv            0      0.00%     52.84% # Number of instructions issued per FU type, per thread (Count)
system.cpu.statIssuedInstType_0::SimdFloatMisc            0      0.00%     52.84% # Number of instructions issued per FU type, per thread (Count)
system.cpu.statIssuedInstType_0::SimdFloatMult            0      0.00%     52.84% # Number of instructions issued per FU type, per thread (Count)
system.cpu.statIssuedInstType_0::SimdFloatMultAcc            0      0.00%     52.84% # Number of instructions issued per FU type, per thread (Count)
system.cpu.statIssuedInstType_0::SimdFloatSqrt            0      0.00%     52.84% # Number of instructions issued per FU type, per thread (Count)
system.cpu.statIssuedInstType_0::SimdReduceAdd            0      0.00%     52.84% # Number of instructions issued per FU type, per thread (Count)
system.cpu.statIssuedInstType_0::SimdReduceAlu            0      0.00%     52.84% # Number of instructions issued per FU type, per thread (Count)
system.cpu.statIssuedInstType_0::SimdReduceCmp            0      0.00%     52.84% # Number of instructions issued per FU type, per thread (Count)
system.cpu.statIssuedInstType_0::SimdFloatReduceAdd            0      0.00%     52.84% # Number of instructions issued per FU type, per thread (Count)
system.cpu.statIssuedInstType_0::SimdFloatReduceCmp            0      0.00%     52.84% # Number of instructions issued per FU type, per thread (Count)
system.cpu.statIssuedInstType_0::SimdAes            0      0.00%     52.84% # Number of instructions issued per FU type, per thread (Count)
system.cpu.statIssuedInstType_0::SimdAesMix            0      0.00%     52.84% # Number of instructions issued per FU type, per thread (Count)
system.cpu.statIssuedInstType_0::SimdSha1Hash            0      0.00%     52.84% # Number of instructions issued per FU type, per thread (Count)
system.cpu.statIssuedInstType_0::SimdSha1Hash2            0      0.00%     52.84% # Number of instructions issued per FU type, per thread (Count)
system.cpu.statIssuedInstType_0::SimdSha256Hash            0      0.00%     52.84% # Number of instructions issued per FU type, per thread (Count)
system.cpu.statIssuedInstType_0::SimdSha256Hash2            0      0.00%     52.84% # Number of instructions issued per FU type, per thread (Count)
system.cpu.statIssuedInstType_0::SimdShaSigma2            0      0.00%     52.84% # Number of instructions issued per FU type, per thread (Count)
system.cpu.statIssuedInstType_0::SimdShaSigma3            0      0.00%     52.84% # Number of instructions issued per FU type, per thread (Count)
system.cpu.statIssuedInstType_0::SimdPredAlu            0      0.00%     52.84% # Number of instructions issued per FU type, per thread (Count)
system.cpu.statIssuedInstType_0::MemRead      1988091      1.06%     53.90% # Number of instructions issued per FU type, per thread (Count)
system.cpu.statIssuedInstType_0::MemWrite     86766884     46.10%    100.00% # Number of instructions issued per FU type, per thread (Count)
system.cpu.statIssuedInstType_0::FloatMemRead            0      0.00%    100.00% # Number of instructions issued per FU type, per thread (Count)
system.cpu.statIssuedInstType_0::FloatMemWrite            0      0.00%    100.00% # Number of instructions issued per FU type, per thread (Count)
system.cpu.statIssuedInstType_0::IprAccess            0      0.00%    100.00% # Number of instructions issued per FU type, per thread (Count)
system.cpu.statIssuedInstType_0::InstPrefetch            0      0.00%    100.00% # Number of instructions issued per FU type, per thread (Count)
system.cpu.statIssuedInstType_0::total      188215799                       # Number of instructions issued per FU type, per thread (Count)
system.cpu.issueRate                         0.468524                       # Inst issue rate ((Count/Cycle))
system.cpu.fuBusy                               72461                       # FU busy when requested (Count)
system.cpu.fuBusyRate                        0.000385                       # FU busy rate (busy events/executed inst) ((Count/Count))
system.cpu.intInstQueueReads                778166166                       # Number of integer instruction queue reads (Count)
system.cpu.intInstQueueWrites               191329652                       # Number of integer instruction queue writes (Count)
system.cpu.intInstQueueWakeupAccesses       187526070                       # Number of integer instruction queue wakeup accesses (Count)
system.cpu.fpInstQueueReads                         0                       # Number of floating instruction queue reads (Count)
system.cpu.fpInstQueueWrites                        0                       # Number of floating instruction queue writes (Count)
system.cpu.fpInstQueueWakeupAccesses                0                       # Number of floating instruction queue wakeup accesses (Count)
system.cpu.vecInstQueueReads                        0                       # Number of vector instruction queue reads (Count)
system.cpu.vecInstQueueWrites                       0                       # Number of vector instruction queue writes (Count)
system.cpu.vecInstQueueWakeupAccesses               0                       # Number of vector instruction queue wakeup accesses (Count)
system.cpu.intAluAccesses                   188288256                       # Number of integer alu accesses (Count)
system.cpu.fpAluAccesses                            0                       # Number of floating point alu accesses (Count)
system.cpu.vecAluAccesses                           0                       # Number of vector alu accesses (Count)
system.cpu.idleCycles                               0                       # Number of cycles IEW is idle (Cycle)
system.cpu.squashCycles                         46177                       # Number of cycles IEW is squashing (Cycle)
system.cpu.blockCycles                         186618                       # Number of cycles IEW is blocking (Cycle)
system.cpu.unblockCycles                        24675                       # Number of cycles IEW is unblocking (Cycle)
system.cpu.dispatchedInsts                  188240745                       # Number of instructions dispatched to IQ (Count)
system.cpu.dispSquashedInsts                      436                       # Number of squashed instructions skipped by dispatch (Count)
system.cpu.dispLoadInsts                      1990706                       # Number of dispatched load instructions (Count)
system.cpu.dispStoreInsts                    86771555                       # Number of dispatched store instructions (Count)
system.cpu.dispNonSpecInsts                        71                       # Number of dispatched non-speculative instructions (Count)
system.cpu.iqFullEvents                           137                       # Number of times the IQ has become full, causing a stall (Count)
system.cpu.lsqFullEvents                        24217                       # Number of times the LSQ has become full, causing a stall (Count)
system.cpu.memOrderViolationEvents                180                       # Number of memory order violations (Count)
system.cpu.predictedTakenIncorrect                515                       # Number of branches that were predicted taken incorrectly (Count)
system.cpu.predictedNotTakenIncorrect            1841                       # Number of branches that were predicted not taken incorrectly (Count)
system.cpu.branchMispredicts                     2356                       # Number of branch mispredicts detected at execute (Count)
system.cpu.numInsts                         188212438                       # Number of executed instructions (Count)
system.cpu.numLoadInsts                       1986500                       # Number of load instructions executed (Count)
system.cpu.numSquashedInsts                      3356                       # Number of squashed instructions skipped in execute (Count)
system.cpu.numSwp                                   0                       # Number of swp insts executed (Count)
system.cpu.numNop                                   0                       # Number of nop insts executed (Count)
system.cpu.numRefs                           88752846                       # Number of memory reference insts executed (Count)
system.cpu.numBranches                       10869708                       # Number of branches executed (Count)
system.cpu.numStoreInsts                     86766346                       # Number of stores executed (Count)
system.cpu.numRate                           0.468515                       # Inst execution rate ((Count/Cycle))
system.cpu.instsToCommit                    188207905                       # Cumulative count of insts sent to commit (Count)
system.cpu.writebackCount                   187526070                       # Cumulative count of insts written-back (Count)
system.cpu.producerInst                      82783512                       # Number of instructions producing a value (Count)
system.cpu.consumerInst                     411445640                       # Number of instructions consuming a value (Count)
system.cpu.wbRate                            0.466807                       # Insts written-back per cycle ((Count/Cycle))
system.cpu.wbFanout                          0.201202                       # Average fanout of values written-back ((Count/Count))
system.cpu.timesIdled                             581                       # Number of times that the entire CPU went into an idle state and unscheduled itself (Count)
system.cpu.idleCycles                           59009                       # Total number of cycles that the CPU has spent unscheduled due to idling (Cycle)
system.cpu.committedInsts                   100000001                       # Number of Instructions Simulated (Count)
system.cpu.committedOps                     185151994                       # Number of Ops (including micro ops) Simulated (Count)
system.cpu.cpi                               4.017209                       # CPI: Cycles Per Instruction ((Cycle/Count))
system.cpu.totalCpi                          4.017209                       # CPI: Total CPI of All Threads ((Cycle/Count))
system.cpu.ipc                               0.248929                       # IPC: Instructions Per Cycle ((Count/Cycle))
system.cpu.totalIpc                          0.248929                       # IPC: Total IPC of All Threads ((Count/Cycle))
system.cpu.intRegfileReads                  265059835                       # Number of integer regfile reads (Count)
system.cpu.intRegfileWrites                  90316697                       # Number of integer regfile writes (Count)
system.cpu.vecRegfileReads                         16                       # number of vector regfile reads (Count)
system.cpu.ccRegfileReads                   570582873                       # number of cc regfile reads (Count)
system.cpu.ccRegfileWrites                  130606742                       # number of cc regfile writes (Count)
system.cpu.miscRegfileReads                 355917696                       # number of misc regfile reads (Count)
system.cpu.miscRegfileWrites                      137                       # number of misc regfile writes (Count)
system.cpu.MemDepUnit__0.insertedLoads        1990706                       # Number of loads inserted to the mem dependence unit. (Count)
system.cpu.MemDepUnit__0.insertedStores      86771555                       # Number of stores inserted to the mem dependence unit. (Count)
system.cpu.MemDepUnit__0.conflictingLoads       154794                       # Number of conflicting loads. (Count)
system.cpu.MemDepUnit__0.conflictingStores        25184                       # Number of conflicting stores. (Count)
system.cpu.MemDepUnit__1.insertedLoads              0                       # Number of loads inserted to the mem dependence unit. (Count)
system.cpu.MemDepUnit__1.insertedStores             0                       # Number of stores inserted to the mem dependence unit. (Count)
system.cpu.MemDepUnit__1.conflictingLoads            0                       # Number of conflicting loads. (Count)
system.cpu.MemDepUnit__1.conflictingStores            0                       # Number of conflicting stores. (Count)
system.cpu.MemDepUnit__2.insertedLoads              0                       # Number of loads inserted to the mem dependence unit. (Count)
system.cpu.MemDepUnit__2.insertedStores             0                       # Number of stores inserted to the mem dependence unit. (Count)
system.cpu.MemDepUnit__2.conflictingLoads            0                       # Number of conflicting loads. (Count)
system.cpu.MemDepUnit__2.conflictingStores            0                       # Number of conflicting stores. (Count)
system.cpu.MemDepUnit__3.insertedLoads              0                       # Number of loads inserted to the mem dependence unit. (Count)
system.cpu.MemDepUnit__3.insertedStores             0                       # Number of stores inserted to the mem dependence unit. (Count)
system.cpu.MemDepUnit__3.conflictingLoads            0                       # Number of conflicting loads. (Count)
system.cpu.MemDepUnit__3.conflictingStores            0                       # Number of conflicting stores. (Count)
system.cpu.branchPred.lookups                11052387                       # Number of BP lookups (Count)
system.cpu.branchPred.condPredicted          11040331                       # Number of conditional branches predicted (Count)
system.cpu.branchPred.condIncorrect              2448                       # Number of conditional branches incorrect (Count)
system.cpu.branchPred.BTBLookups             11037922                       # Number of BTB lookups (Count)
system.cpu.branchPred.BTBHits                11037107                       # Number of BTB hits (Count)
system.cpu.branchPred.BTBMissPct             0.000074                       # BTB Miss Percentage (Ratio)
system.cpu.branchPred.BTBHitRatio            0.999926                       # BTB Hit Ratio (Ratio)
system.cpu.branchPred.RASUsed                    3854                       # Number of times the RAS was used to get a target. (Count)
system.cpu.branchPred.RASIncorrect                 67                       # Number of incorrect RAS predictions. (Count)
system.cpu.branchPred.indirectLookups             591                       # Number of indirect predictor lookups. (Count)
system.cpu.branchPred.indirectHits                252                       # Number of indirect target hits. (Count)
system.cpu.branchPred.indirectMisses              339                       # Number of indirect misses. (Count)
system.cpu.branchPred.indirectMispredicted          172                       # Number of mispredicted indirect branches. (Count)
system.cpu.commit.commitSquashedInsts         1770512                       # The number of squashed insts skipped by commit (Count)
system.cpu.commit.commitNonSpecStalls              87                       # The number of times commit has been forced to stall to communicate backwards (Count)
system.cpu.commit.branchMispredicts              2056                       # The number of times a branch was mispredicted (Count)
system.cpu.commit.numCommittedDist::samples    401433658                       # Number of insts commited each cycle
system.cpu.commit.numCommittedDist::mean     0.461227                       # Number of insts commited each cycle
system.cpu.commit.numCommittedDist::stdev     1.265347                       # Number of insts commited each cycle
system.cpu.commit.numCommittedDist::underflows            0      0.00%      0.00% # Number of insts commited each cycle
system.cpu.commit.numCommittedDist::0       346418753     86.30%     86.30% # Number of insts commited each cycle
system.cpu.commit.numCommittedDist::1        10840402      2.70%     89.00% # Number of insts commited each cycle
system.cpu.commit.numCommittedDist::2         1983996      0.49%     89.49% # Number of insts commited each cycle
system.cpu.commit.numCommittedDist::3         7836035      1.95%     91.44% # Number of insts commited each cycle
system.cpu.commit.numCommittedDist::4        26063224      6.49%     97.93% # Number of insts commited each cycle
system.cpu.commit.numCommittedDist::5         7895955      1.97%     99.90% # Number of insts commited each cycle
system.cpu.commit.numCommittedDist::6            8407      0.00%     99.90% # Number of insts commited each cycle
system.cpu.commit.numCommittedDist::7           42706      0.01%     99.91% # Number of insts commited each cycle
system.cpu.commit.numCommittedDist::8          344180      0.09%    100.00% # Number of insts commited each cycle
system.cpu.commit.numCommittedDist::overflows            0      0.00%    100.00% # Number of insts commited each cycle
system.cpu.commit.numCommittedDist::min_value            0                       # Number of insts commited each cycle
system.cpu.commit.numCommittedDist::max_value            8                       # Number of insts commited each cycle
system.cpu.commit.numCommittedDist::total    401433658                       # Number of insts commited each cycle
system.cpu.commit.instsCommitted            100000001                       # Number of instructions committed (Count)
system.cpu.commit.opsCommitted              185151994                       # Number of ops (including micro ops) committed (Count)
system.cpu.commit.memRefs                    87286940                       # Number of memory references committed (Count)
system.cpu.commit.loads                       1972953                       # Number of loads committed (Count)
system.cpu.commit.amos                              0                       # Number of atomic instructions committed (Count)
system.cpu.commit.membars                          34                       # Number of memory barriers committed (Count)
system.cpu.commit.branches                   10690638                       # Number of branches committed (Count)
system.cpu.commit.vectorInstructions                0                       # Number of committed Vector instructions. (Count)
system.cpu.commit.floating                          0                       # Number of committed floating point instructions. (Count)
system.cpu.commit.integer                   174467004                       # Number of committed integer instructions. (Count)
system.cpu.commit.functionCalls                  2665                       # Number of function calls committed. (Count)
system.cpu.commit.committedInstType_0::No_OpClass            0      0.00%      0.00% # Class of committed instruction (Count)
system.cpu.commit.committedInstType_0::IntAlu     97864975     52.86%     52.86% # Class of committed instruction (Count)
system.cpu.commit.committedInstType_0::IntMult           79      0.00%     52.86% # Class of committed instruction (Count)
system.cpu.commit.committedInstType_0::IntDiv            0      0.00%     52.86% # Class of committed instruction (Count)
system.cpu.commit.committedInstType_0::FloatAdd            0      0.00%     52.86% # Class of committed instruction (Count)
system.cpu.commit.committedInstType_0::FloatCmp            0      0.00%     52.86% # Class of committed instruction (Count)
system.cpu.commit.committedInstType_0::FloatCvt            0      0.00%     52.86% # Class of committed instruction (Count)
system.cpu.commit.committedInstType_0::FloatMult            0      0.00%     52.86% # Class of committed instruction (Count)
system.cpu.commit.committedInstType_0::FloatMultAcc            0      0.00%     52.86% # Class of committed instruction (Count)
system.cpu.commit.committedInstType_0::FloatDiv            0      0.00%     52.86% # Class of committed instruction (Count)
system.cpu.commit.committedInstType_0::FloatMisc            0      0.00%     52.86% # Class of committed instruction (Count)
system.cpu.commit.committedInstType_0::FloatSqrt            0      0.00%     52.86% # Class of committed instruction (Count)
system.cpu.commit.committedInstType_0::SimdAdd            0      0.00%     52.86% # Class of committed instruction (Count)
system.cpu.commit.committedInstType_0::SimdAddAcc            0      0.00%     52.86% # Class of committed instruction (Count)
system.cpu.commit.committedInstType_0::SimdAlu            0      0.00%     52.86% # Class of committed instruction (Count)
system.cpu.commit.committedInstType_0::SimdCmp            0      0.00%     52.86% # Class of committed instruction (Count)
system.cpu.commit.committedInstType_0::SimdCvt            0      0.00%     52.86% # Class of committed instruction (Count)
system.cpu.commit.committedInstType_0::SimdMisc            0      0.00%     52.86% # Class of committed instruction (Count)
system.cpu.commit.committedInstType_0::SimdMult            0      0.00%     52.86% # Class of committed instruction (Count)
system.cpu.commit.committedInstType_0::SimdMultAcc            0      0.00%     52.86% # Class of committed instruction (Count)
system.cpu.commit.committedInstType_0::SimdShift            0      0.00%     52.86% # Class of committed instruction (Count)
system.cpu.commit.committedInstType_0::SimdShiftAcc            0      0.00%     52.86% # Class of committed instruction (Count)
system.cpu.commit.committedInstType_0::SimdDiv            0      0.00%     52.86% # Class of committed instruction (Count)
system.cpu.commit.committedInstType_0::SimdSqrt            0      0.00%     52.86% # Class of committed instruction (Count)
system.cpu.commit.committedInstType_0::SimdFloatAdd            0      0.00%     52.86% # Class of committed instruction (Count)
system.cpu.commit.committedInstType_0::SimdFloatAlu            0      0.00%     52.86% # Class of committed instruction (Count)
system.cpu.commit.committedInstType_0::SimdFloatCmp            0      0.00%     52.86% # Class of committed instruction (Count)
system.cpu.commit.committedInstType_0::SimdFloatCvt            0      0.00%     52.86% # Class of committed instruction (Count)
system.cpu.commit.committedInstType_0::SimdFloatDiv            0      0.00%     52.86% # Class of committed instruction (Count)
system.cpu.commit.committedInstType_0::SimdFloatMisc            0      0.00%     52.86% # Class of committed instruction (Count)
system.cpu.commit.committedInstType_0::SimdFloatMult            0      0.00%     52.86% # Class of committed instruction (Count)
system.cpu.commit.committedInstType_0::SimdFloatMultAcc            0      0.00%     52.86% # Class of committed instruction (Count)
system.cpu.commit.committedInstType_0::SimdFloatSqrt            0      0.00%     52.86% # Class of committed instruction (Count)
system.cpu.commit.committedInstType_0::SimdReduceAdd            0      0.00%     52.86% # Class of committed instruction (Count)
system.cpu.commit.committedInstType_0::SimdReduceAlu            0      0.00%     52.86% # Class of committed instruction (Count)
system.cpu.commit.committedInstType_0::SimdReduceCmp            0      0.00%     52.86% # Class of committed instruction (Count)
system.cpu.commit.committedInstType_0::SimdFloatReduceAdd            0      0.00%     52.86% # Class of committed instruction (Count)
system.cpu.commit.committedInstType_0::SimdFloatReduceCmp            0      0.00%     52.86% # Class of committed instruction (Count)
system.cpu.commit.committedInstType_0::SimdAes            0      0.00%     52.86% # Class of committed instruction (Count)
system.cpu.commit.committedInstType_0::SimdAesMix            0      0.00%     52.86% # Class of committed instruction (Count)
system.cpu.commit.committedInstType_0::SimdSha1Hash            0      0.00%     52.86% # Class of committed instruction (Count)
system.cpu.commit.committedInstType_0::SimdSha1Hash2            0      0.00%     52.86% # Class of committed instruction (Count)
system.cpu.commit.committedInstType_0::SimdSha256Hash            0      0.00%     52.86% # Class of committed instruction (Count)
system.cpu.commit.committedInstType_0::SimdSha256Hash2            0      0.00%     52.86% # Class of committed instruction (Count)
system.cpu.commit.committedInstType_0::SimdShaSigma2            0      0.00%     52.86% # Class of committed instruction (Count)
system.cpu.commit.committedInstType_0::SimdShaSigma3            0      0.00%     52.86% # Class of committed instruction (Count)
system.cpu.commit.committedInstType_0::SimdPredAlu            0      0.00%     52.86% # Class of committed instruction (Count)
system.cpu.commit.committedInstType_0::MemRead      1972953      1.07%     53.92% # Class of committed instruction (Count)
system.cpu.commit.committedInstType_0::MemWrite     85313987     46.08%    100.00% # Class of committed instruction (Count)
system.cpu.commit.committedInstType_0::FloatMemRead            0      0.00%    100.00% # Class of committed instruction (Count)
system.cpu.commit.committedInstType_0::FloatMemWrite            0      0.00%    100.00% # Class of committed instruction (Count)
system.cpu.commit.committedInstType_0::IprAccess            0      0.00%    100.00% # Class of committed instruction (Count)
system.cpu.commit.committedInstType_0::InstPrefetch            0      0.00%    100.00% # Class of committed instruction (Count)
system.cpu.commit.committedInstType_0::total    185151994                       # Class of committed instruction (Count)
system.cpu.commit.commitEligibleSamples        344180                       # number cycles where commit BW limit reached (Cycle)
system.cpu.dcache.demandHits::cpu.data        3041032                       # number of demand (read+write) hits (Count)
system.cpu.dcache.demandHits::total           3041032                       # number of demand (read+write) hits (Count)
system.cpu.dcache.overallHits::cpu.data       3041032                       # number of overall hits (Count)
system.cpu.dcache.overallHits::total          3041032                       # number of overall hits (Count)
system.cpu.dcache.demandMisses::cpu.data     84073102                       # number of demand (read+write) misses (Count)
system.cpu.dcache.demandMisses::total        84073102                       # number of demand (read+write) misses (Count)
system.cpu.dcache.overallMisses::cpu.data     84073102                       # number of overall misses (Count)
system.cpu.dcache.overallMisses::total       84073102                       # number of overall misses (Count)
system.cpu.dcache.demandMissLatency::cpu.data 6014819697950                       # number of demand (read+write) miss ticks (Tick)
system.cpu.dcache.demandMissLatency::total 6014819697950                       # number of demand (read+write) miss ticks (Tick)
system.cpu.dcache.overallMissLatency::cpu.data 6014819697950                       # number of overall miss ticks (Tick)
system.cpu.dcache.overallMissLatency::total 6014819697950                       # number of overall miss ticks (Tick)
system.cpu.dcache.demandAccesses::cpu.data     87114134                       # number of demand (read+write) accesses (Count)
system.cpu.dcache.demandAccesses::total      87114134                       # number of demand (read+write) accesses (Count)
system.cpu.dcache.overallAccesses::cpu.data     87114134                       # number of overall (read+write) accesses (Count)
system.cpu.dcache.overallAccesses::total     87114134                       # number of overall (read+write) accesses (Count)
system.cpu.dcache.demandMissRate::cpu.data     0.965091                       # miss rate for demand accesses (Ratio)
system.cpu.dcache.demandMissRate::total      0.965091                       # miss rate for demand accesses (Ratio)
system.cpu.dcache.overallMissRate::cpu.data     0.965091                       # miss rate for overall accesses (Ratio)
system.cpu.dcache.overallMissRate::total     0.965091                       # miss rate for overall accesses (Ratio)
system.cpu.dcache.demandAvgMissLatency::cpu.data 71542.735487                       # average overall miss latency ((Cycle/Count))
system.cpu.dcache.demandAvgMissLatency::total 71542.735487                       # average overall miss latency ((Cycle/Count))
system.cpu.dcache.overallAvgMissLatency::cpu.data 71542.735487                       # average overall miss latency ((Cycle/Count))
system.cpu.dcache.overallAvgMissLatency::total 71542.735487                       # average overall miss latency ((Cycle/Count))
system.cpu.dcache.blockedCycles::no_mshrs        17880                       # number of cycles access was blocked (Cycle)
system.cpu.dcache.blockedCycles::no_targets           33                       # number of cycles access was blocked (Cycle)
system.cpu.dcache.blockedCauses::no_mshrs          188                       # number of times access was blocked (Count)
system.cpu.dcache.blockedCauses::no_targets            1                       # number of times access was blocked (Count)
system.cpu.dcache.avgBlocked::no_mshrs      95.106383                       # average number of cycles each access was blocked ((Cycle/Count))
system.cpu.dcache.avgBlocked::no_targets           33                       # average number of cycles each access was blocked ((Cycle/Count))
system.cpu.dcache.writebacks::writebacks      5324561                       # number of writebacks (Count)
system.cpu.dcache.writebacks::total           5324561                       # number of writebacks (Count)
system.cpu.dcache.demandMshrHits::cpu.data     78747443                       # number of demand (read+write) MSHR hits (Count)
system.cpu.dcache.demandMshrHits::total      78747443                       # number of demand (read+write) MSHR hits (Count)
system.cpu.dcache.overallMshrHits::cpu.data     78747443                       # number of overall MSHR hits (Count)
system.cpu.dcache.overallMshrHits::total     78747443                       # number of overall MSHR hits (Count)
system.cpu.dcache.demandMshrMisses::cpu.data      5325659                       # number of demand (read+write) MSHR misses (Count)
system.cpu.dcache.demandMshrMisses::total      5325659                       # number of demand (read+write) MSHR misses (Count)
system.cpu.dcache.overallMshrMisses::cpu.data      5325659                       # number of overall MSHR misses (Count)
system.cpu.dcache.overallMshrMisses::total      5325659                       # number of overall MSHR misses (Count)
system.cpu.dcache.demandMshrMissLatency::cpu.data 539061968471                       # number of demand (read+write) MSHR miss ticks (Tick)
system.cpu.dcache.demandMshrMissLatency::total 539061968471                       # number of demand (read+write) MSHR miss ticks (Tick)
system.cpu.dcache.overallMshrMissLatency::cpu.data 539061968471                       # number of overall MSHR miss ticks (Tick)
system.cpu.dcache.overallMshrMissLatency::total 539061968471                       # number of overall MSHR miss ticks (Tick)
system.cpu.dcache.demandMshrMissRate::cpu.data     0.061134                       # mshr miss ratio for demand accesses (Ratio)
system.cpu.dcache.demandMshrMissRate::total     0.061134                       # mshr miss ratio for demand accesses (Ratio)
system.cpu.dcache.overallMshrMissRate::cpu.data     0.061134                       # mshr miss ratio for overall accesses (Ratio)
system.cpu.dcache.overallMshrMissRate::total     0.061134                       # mshr miss ratio for overall accesses (Ratio)
system.cpu.dcache.demandAvgMshrMissLatency::cpu.data 101219.768008                       # average overall mshr miss latency ((Cycle/Count))
system.cpu.dcache.demandAvgMshrMissLatency::total 101219.768008                       # average overall mshr miss latency ((Cycle/Count))
system.cpu.dcache.overallAvgMshrMissLatency::cpu.data 101219.768008                       # average overall mshr miss latency ((Cycle/Count))
system.cpu.dcache.overallAvgMshrMissLatency::total 101219.768008                       # average overall mshr miss latency ((Cycle/Count))
system.cpu.dcache.replacements                5325402                       # number of replacements (Count)
system.cpu.dcache.LoadLockedReq.hits::cpu.data           40                       # number of LoadLockedReq hits (Count)
system.cpu.dcache.LoadLockedReq.hits::total           40                       # number of LoadLockedReq hits (Count)
system.cpu.dcache.LoadLockedReq.accesses::cpu.data           40                       # number of LoadLockedReq accesses(hits+misses) (Count)
system.cpu.dcache.LoadLockedReq.accesses::total           40                       # number of LoadLockedReq accesses(hits+misses) (Count)
system.cpu.dcache.ReadReq.hits::cpu.data      1797040                       # number of ReadReq hits (Count)
system.cpu.dcache.ReadReq.hits::total         1797040                       # number of ReadReq hits (Count)
system.cpu.dcache.ReadReq.misses::cpu.data         3574                       # number of ReadReq misses (Count)
system.cpu.dcache.ReadReq.misses::total          3574                       # number of ReadReq misses (Count)
system.cpu.dcache.ReadReq.missLatency::cpu.data    108596500                       # number of ReadReq miss ticks (Tick)
system.cpu.dcache.ReadReq.missLatency::total    108596500                       # number of ReadReq miss ticks (Tick)
system.cpu.dcache.ReadReq.accesses::cpu.data      1800614                       # number of ReadReq accesses(hits+misses) (Count)
system.cpu.dcache.ReadReq.accesses::total      1800614                       # number of ReadReq accesses(hits+misses) (Count)
system.cpu.dcache.ReadReq.missRate::cpu.data     0.001985                       # miss rate for ReadReq accesses (Ratio)
system.cpu.dcache.ReadReq.missRate::total     0.001985                       # miss rate for ReadReq accesses (Ratio)
system.cpu.dcache.ReadReq.avgMissLatency::cpu.data 30385.142697                       # average ReadReq miss latency ((Tick/Count))
system.cpu.dcache.ReadReq.avgMissLatency::total 30385.142697                       # average ReadReq miss latency ((Tick/Count))
system.cpu.dcache.ReadReq.mshrHits::cpu.data         2539                       # number of ReadReq MSHR hits (Count)
system.cpu.dcache.ReadReq.mshrHits::total         2539                       # number of ReadReq MSHR hits (Count)
system.cpu.dcache.ReadReq.mshrMisses::cpu.data         1035                       # number of ReadReq MSHR misses (Count)
system.cpu.dcache.ReadReq.mshrMisses::total         1035                       # number of ReadReq MSHR misses (Count)
system.cpu.dcache.ReadReq.mshrMissLatency::cpu.data     41550000                       # number of ReadReq MSHR miss ticks (Tick)
system.cpu.dcache.ReadReq.mshrMissLatency::total     41550000                       # number of ReadReq MSHR miss ticks (Tick)
system.cpu.dcache.ReadReq.mshrMissRate::cpu.data     0.000575                       # mshr miss rate for ReadReq accesses (Ratio)
system.cpu.dcache.ReadReq.mshrMissRate::total     0.000575                       # mshr miss rate for ReadReq accesses (Ratio)
system.cpu.dcache.ReadReq.avgMshrMissLatency::cpu.data 40144.927536                       # average ReadReq mshr miss latency ((Tick/Count))
system.cpu.dcache.ReadReq.avgMshrMissLatency::total 40144.927536                       # average ReadReq mshr miss latency ((Tick/Count))
system.cpu.dcache.StoreCondReq.hits::cpu.data           34                       # number of StoreCondReq hits (Count)
system.cpu.dcache.StoreCondReq.hits::total           34                       # number of StoreCondReq hits (Count)
system.cpu.dcache.StoreCondReq.accesses::cpu.data           34                       # number of StoreCondReq accesses(hits+misses) (Count)
system.cpu.dcache.StoreCondReq.accesses::total           34                       # number of StoreCondReq accesses(hits+misses) (Count)
system.cpu.dcache.WriteReq.hits::cpu.data      1243992                       # number of WriteReq hits (Count)
system.cpu.dcache.WriteReq.hits::total        1243992                       # number of WriteReq hits (Count)
system.cpu.dcache.WriteReq.misses::cpu.data     84069528                       # number of WriteReq misses (Count)
system.cpu.dcache.WriteReq.misses::total     84069528                       # number of WriteReq misses (Count)
system.cpu.dcache.WriteReq.missLatency::cpu.data 6014711101450                       # number of WriteReq miss ticks (Tick)
system.cpu.dcache.WriteReq.missLatency::total 6014711101450                       # number of WriteReq miss ticks (Tick)
system.cpu.dcache.WriteReq.accesses::cpu.data     85313520                       # number of WriteReq accesses(hits+misses) (Count)
system.cpu.dcache.WriteReq.accesses::total     85313520                       # number of WriteReq accesses(hits+misses) (Count)
system.cpu.dcache.WriteReq.missRate::cpu.data     0.985419                       # miss rate for WriteReq accesses (Ratio)
system.cpu.dcache.WriteReq.missRate::total     0.985419                       # miss rate for WriteReq accesses (Ratio)
system.cpu.dcache.WriteReq.avgMissLatency::cpu.data 71544.485196                       # average WriteReq miss latency ((Tick/Count))
system.cpu.dcache.WriteReq.avgMissLatency::total 71544.485196                       # average WriteReq miss latency ((Tick/Count))
system.cpu.dcache.WriteReq.mshrHits::cpu.data     78744904                       # number of WriteReq MSHR hits (Count)
system.cpu.dcache.WriteReq.mshrHits::total     78744904                       # number of WriteReq MSHR hits (Count)
system.cpu.dcache.WriteReq.mshrMisses::cpu.data      5324624                       # number of WriteReq MSHR misses (Count)
system.cpu.dcache.WriteReq.mshrMisses::total      5324624                       # number of WriteReq MSHR misses (Count)
system.cpu.dcache.WriteReq.mshrMissLatency::cpu.data 539020418471                       # number of WriteReq MSHR miss ticks (Tick)
system.cpu.dcache.WriteReq.mshrMissLatency::total 539020418471                       # number of WriteReq MSHR miss ticks (Tick)
system.cpu.dcache.WriteReq.mshrMissRate::cpu.data     0.062412                       # mshr miss rate for WriteReq accesses (Ratio)
system.cpu.dcache.WriteReq.mshrMissRate::total     0.062412                       # mshr miss rate for WriteReq accesses (Ratio)
system.cpu.dcache.WriteReq.avgMshrMissLatency::cpu.data 101231.639731                       # average WriteReq mshr miss latency ((Tick/Count))
system.cpu.dcache.WriteReq.avgMshrMissLatency::total 101231.639731                       # average WriteReq mshr miss latency ((Tick/Count))
system.cpu.dcache.power_state.pwrStateResidencyTicks::UNDEFINED 200860463500                       # Cumulative time (in ticks) in various power states (Tick)
system.cpu.dcache.tags.tagsInUse           255.976176                       # Average ticks per tags in use ((Tick/Count))
system.cpu.dcache.tags.totalRefs              8366764                       # Total number of references to valid blocks. (Count)
system.cpu.dcache.tags.sampledRefs            5325658                       # Sample count of references to valid blocks. (Count)
system.cpu.dcache.tags.avgRefs               1.571029                       # Average number of references to valid blocks. ((Count/Count))
system.cpu.dcache.tags.warmupTick              161000                       # The tick when the warmup percentage was hit. (Tick)
system.cpu.dcache.tags.occupancies::cpu.data   255.976176                       # Average occupied blocks per tick, per requestor ((Count/Tick))
system.cpu.dcache.tags.avgOccs::cpu.data     0.999907                       # Average percentage of cache occupancy ((Ratio/Tick))
system.cpu.dcache.tags.avgOccs::total        0.999907                       # Average percentage of cache occupancy ((Ratio/Tick))
system.cpu.dcache.tags.occupanciesTaskId::1024          256                       # Occupied blocks per task id (Count)
system.cpu.dcache.tags.ageTaskId_1024::0          256                       # Occupied blocks per task id, per block age (Count)
system.cpu.dcache.tags.ratioOccsTaskId::1024            1                       # Ratio of occupied blocks and all blocks, per task id (Ratio)
system.cpu.dcache.tags.tagAccesses          179554074                       # Number of tag accesses (Count)
system.cpu.dcache.tags.dataAccesses         179554074                       # Number of data accesses (Count)
system.cpu.dcache.tags.power_state.pwrStateResidencyTicks::UNDEFINED 200860463500                       # Cumulative time (in ticks) in various power states (Tick)
system.cpu.decode.idleCycles                  5539267                       # Number of cycles decode is idle (Cycle)
system.cpu.decode.blockedCycles             372430504                       # Number of cycles decode is blocked (Cycle)
system.cpu.decode.runCycles                  12692932                       # Number of cycles decode is running (Cycle)
system.cpu.decode.unblockCycles              10953039                       # Number of cycles decode is unblocking (Cycle)
system.cpu.decode.squashCycles                  46177                       # Number of cycles decode is squashing (Cycle)
system.cpu.decode.branchResolved             10905253                       # Number of times decode resolved a branch (Count)
system.cpu.decode.branchMispred                   408                       # Number of times decode detected a branch misprediction (Count)
system.cpu.decode.decodedInsts              188919167                       # Number of instructions handled by decode (Count)
system.cpu.decode.squashedInsts                  1713                       # Number of squashed instructions handled by decode (Count)
system.cpu.fetch.icacheStallCycles             323256                       # Number of cycles fetch is stalled on an Icache miss (Cycle)
system.cpu.fetch.insts                      103163857                       # Number of instructions fetch has processed (Count)
system.cpu.fetch.branches                    11052387                       # Number of branches that fetch encountered (Count)
system.cpu.fetch.predictedBranches           11041213                       # Number of branches that fetch has predicted taken (Count)
system.cpu.fetch.cycles                     401291991                       # Number of cycles fetch has run and was not squashing or blocked (Cycle)
system.cpu.fetch.squashCycles                   93144                       # Number of cycles fetch has spent squashing (Cycle)
system.cpu.fetch.miscStallCycles                    6                       # Number of cycles fetch has spent waiting on interrupts, or bad addresses, or out of MSHRs (Cycle)
system.cpu.fetch.pendingTrapStallCycles            57                       # Number of stall cycles due to pending traps (Cycle)
system.cpu.fetch.icacheWaitRetryStallCycles           37                       # Number of stall cycles due to full MSHR (Cycle)
system.cpu.fetch.cacheLines                    305114                       # Number of cache lines fetched (Count)
system.cpu.fetch.icacheSquashes                  1354                       # Number of outstanding Icache misses that were squashed (Count)
system.cpu.fetch.nisnDist::samples          401661919                       # Number of instructions fetched each cycle (Total)
system.cpu.fetch.nisnDist::mean              0.475650                       # Number of instructions fetched each cycle (Total)
system.cpu.fetch.nisnDist::stdev             1.786433                       # Number of instructions fetched each cycle (Total)
system.cpu.fetch.nisnDist::underflows               0      0.00%      0.00% # Number of instructions fetched each cycle (Total)
system.cpu.fetch.nisnDist::0                368024890     91.63%     91.63% # Number of instructions fetched each cycle (Total)
system.cpu.fetch.nisnDist::1                  6998650      1.74%     93.37% # Number of instructions fetched each cycle (Total)
system.cpu.fetch.nisnDist::2                  1354197      0.34%     93.71% # Number of instructions fetched each cycle (Total)
system.cpu.fetch.nisnDist::3                  1407395      0.35%     94.06% # Number of instructions fetched each cycle (Total)
system.cpu.fetch.nisnDist::4                  1406368      0.35%     94.41% # Number of instructions fetched each cycle (Total)
system.cpu.fetch.nisnDist::5                  1376284      0.34%     94.75% # Number of instructions fetched each cycle (Total)
system.cpu.fetch.nisnDist::6                  1389053      0.35%     95.09% # Number of instructions fetched each cycle (Total)
system.cpu.fetch.nisnDist::7                  1360494      0.34%     95.43% # Number of instructions fetched each cycle (Total)
system.cpu.fetch.nisnDist::8                 18344588      4.57%    100.00% # Number of instructions fetched each cycle (Total)
system.cpu.fetch.nisnDist::overflows                0      0.00%    100.00% # Number of instructions fetched each cycle (Total)
system.cpu.fetch.nisnDist::min_value                0                       # Number of instructions fetched each cycle (Total)
system.cpu.fetch.nisnDist::max_value                8                       # Number of instructions fetched each cycle (Total)
system.cpu.fetch.nisnDist::total            401661919                       # Number of instructions fetched each cycle (Total)
system.cpu.fetch.branchRate                  0.027513                       # Number of branch fetches per cycle (Ratio)
system.cpu.fetch.rate                        0.256805                       # Number of inst fetches per cycle ((Count/Cycle))
system.cpu.icache.demandHits::cpu.inst         303833                       # number of demand (read+write) hits (Count)
system.cpu.icache.demandHits::total            303833                       # number of demand (read+write) hits (Count)
system.cpu.icache.overallHits::cpu.inst        303833                       # number of overall hits (Count)
system.cpu.icache.overallHits::total           303833                       # number of overall hits (Count)
system.cpu.icache.demandMisses::cpu.inst         1281                       # number of demand (read+write) misses (Count)
system.cpu.icache.demandMisses::total            1281                       # number of demand (read+write) misses (Count)
system.cpu.icache.overallMisses::cpu.inst         1281                       # number of overall misses (Count)
system.cpu.icache.overallMisses::total           1281                       # number of overall misses (Count)
system.cpu.icache.demandMissLatency::cpu.inst     84360498                       # number of demand (read+write) miss ticks (Tick)
system.cpu.icache.demandMissLatency::total     84360498                       # number of demand (read+write) miss ticks (Tick)
system.cpu.icache.overallMissLatency::cpu.inst     84360498                       # number of overall miss ticks (Tick)
system.cpu.icache.overallMissLatency::total     84360498                       # number of overall miss ticks (Tick)
system.cpu.icache.demandAccesses::cpu.inst       305114                       # number of demand (read+write) accesses (Count)
system.cpu.icache.demandAccesses::total        305114                       # number of demand (read+write) accesses (Count)
system.cpu.icache.overallAccesses::cpu.inst       305114                       # number of overall (read+write) accesses (Count)
system.cpu.icache.overallAccesses::total       305114                       # number of overall (read+write) accesses (Count)
system.cpu.icache.demandMissRate::cpu.inst     0.004198                       # miss rate for demand accesses (Ratio)
system.cpu.icache.demandMissRate::total      0.004198                       # miss rate for demand accesses (Ratio)
system.cpu.icache.overallMissRate::cpu.inst     0.004198                       # miss rate for overall accesses (Ratio)
system.cpu.icache.overallMissRate::total     0.004198                       # miss rate for overall accesses (Ratio)
system.cpu.icache.demandAvgMissLatency::cpu.inst 65855.189696                       # average overall miss latency ((Cycle/Count))
system.cpu.icache.demandAvgMissLatency::total 65855.189696                       # average overall miss latency ((Cycle/Count))
system.cpu.icache.overallAvgMissLatency::cpu.inst 65855.189696                       # average overall miss latency ((Cycle/Count))
system.cpu.icache.overallAvgMissLatency::total 65855.189696                       # average overall miss latency ((Cycle/Count))
system.cpu.icache.blockedCycles::no_mshrs         1108                       # number of cycles access was blocked (Cycle)
system.cpu.icache.blockedCycles::no_targets            0                       # number of cycles access was blocked (Cycle)
system.cpu.icache.blockedCauses::no_mshrs           15                       # number of times access was blocked (Count)
system.cpu.icache.blockedCauses::no_targets            0                       # number of times access was blocked (Count)
system.cpu.icache.avgBlocked::no_mshrs      73.866667                       # average number of cycles each access was blocked ((Cycle/Count))
system.cpu.icache.avgBlocked::no_targets          nan                       # average number of cycles each access was blocked ((Cycle/Count))
system.cpu.icache.writebacks::writebacks          651                       # number of writebacks (Count)
system.cpu.icache.writebacks::total               651                       # number of writebacks (Count)
system.cpu.icache.demandMshrHits::cpu.inst          376                       # number of demand (read+write) MSHR hits (Count)
system.cpu.icache.demandMshrHits::total           376                       # number of demand (read+write) MSHR hits (Count)
system.cpu.icache.overallMshrHits::cpu.inst          376                       # number of overall MSHR hits (Count)
system.cpu.icache.overallMshrHits::total          376                       # number of overall MSHR hits (Count)
system.cpu.icache.demandMshrMisses::cpu.inst          905                       # number of demand (read+write) MSHR misses (Count)
system.cpu.icache.demandMshrMisses::total          905                       # number of demand (read+write) MSHR misses (Count)
system.cpu.icache.overallMshrMisses::cpu.inst          905                       # number of overall MSHR misses (Count)
system.cpu.icache.overallMshrMisses::total          905                       # number of overall MSHR misses (Count)
system.cpu.icache.demandMshrMissLatency::cpu.inst     63203999                       # number of demand (read+write) MSHR miss ticks (Tick)
system.cpu.icache.demandMshrMissLatency::total     63203999                       # number of demand (read+write) MSHR miss ticks (Tick)
system.cpu.icache.overallMshrMissLatency::cpu.inst     63203999                       # number of overall MSHR miss ticks (Tick)
system.cpu.icache.overallMshrMissLatency::total     63203999                       # number of overall MSHR miss ticks (Tick)
system.cpu.icache.demandMshrMissRate::cpu.inst     0.002966                       # mshr miss ratio for demand accesses (Ratio)
system.cpu.icache.demandMshrMissRate::total     0.002966                       # mshr miss ratio for demand accesses (Ratio)
system.cpu.icache.overallMshrMissRate::cpu.inst     0.002966                       # mshr miss ratio for overall accesses (Ratio)
system.cpu.icache.overallMshrMissRate::total     0.002966                       # mshr miss ratio for overall accesses (Ratio)
system.cpu.icache.demandAvgMshrMissLatency::cpu.inst 69838.672928                       # average overall mshr miss latency ((Cycle/Count))
system.cpu.icache.demandAvgMshrMissLatency::total 69838.672928                       # average overall mshr miss latency ((Cycle/Count))
system.cpu.icache.overallAvgMshrMissLatency::cpu.inst 69838.672928                       # average overall mshr miss latency ((Cycle/Count))
system.cpu.icache.overallAvgMshrMissLatency::total 69838.672928                       # average overall mshr miss latency ((Cycle/Count))
system.cpu.icache.replacements                    651                       # number of replacements (Count)
system.cpu.icache.ReadReq.hits::cpu.inst       303833                       # number of ReadReq hits (Count)
system.cpu.icache.ReadReq.hits::total          303833                       # number of ReadReq hits (Count)
system.cpu.icache.ReadReq.misses::cpu.inst         1281                       # number of ReadReq misses (Count)
system.cpu.icache.ReadReq.misses::total          1281                       # number of ReadReq misses (Count)
system.cpu.icache.ReadReq.missLatency::cpu.inst     84360498                       # number of ReadReq miss ticks (Tick)
system.cpu.icache.ReadReq.missLatency::total     84360498                       # number of ReadReq miss ticks (Tick)
system.cpu.icache.ReadReq.accesses::cpu.inst       305114                       # number of ReadReq accesses(hits+misses) (Count)
system.cpu.icache.ReadReq.accesses::total       305114                       # number of ReadReq accesses(hits+misses) (Count)
system.cpu.icache.ReadReq.missRate::cpu.inst     0.004198                       # miss rate for ReadReq accesses (Ratio)
system.cpu.icache.ReadReq.missRate::total     0.004198                       # miss rate for ReadReq accesses (Ratio)
system.cpu.icache.ReadReq.avgMissLatency::cpu.inst 65855.189696                       # average ReadReq miss latency ((Tick/Count))
system.cpu.icache.ReadReq.avgMissLatency::total 65855.189696                       # average ReadReq miss latency ((Tick/Count))
system.cpu.icache.ReadReq.mshrHits::cpu.inst          376                       # number of ReadReq MSHR hits (Count)
system.cpu.icache.ReadReq.mshrHits::total          376                       # number of ReadReq MSHR hits (Count)
system.cpu.icache.ReadReq.mshrMisses::cpu.inst          905                       # number of ReadReq MSHR misses (Count)
system.cpu.icache.ReadReq.mshrMisses::total          905                       # number of ReadReq MSHR misses (Count)
system.cpu.icache.ReadReq.mshrMissLatency::cpu.inst     63203999                       # number of ReadReq MSHR miss ticks (Tick)
system.cpu.icache.ReadReq.mshrMissLatency::total     63203999                       # number of ReadReq MSHR miss ticks (Tick)
system.cpu.icache.ReadReq.mshrMissRate::cpu.inst     0.002966                       # mshr miss rate for ReadReq accesses (Ratio)
system.cpu.icache.ReadReq.mshrMissRate::total     0.002966                       # mshr miss rate for ReadReq accesses (Ratio)
system.cpu.icache.ReadReq.avgMshrMissLatency::cpu.inst 69838.672928                       # average ReadReq mshr miss latency ((Tick/Count))
system.cpu.icache.ReadReq.avgMshrMissLatency::total 69838.672928                       # average ReadReq mshr miss latency ((Tick/Count))
system.cpu.icache.power_state.pwrStateResidencyTicks::UNDEFINED 200860463500                       # Cumulative time (in ticks) in various power states (Tick)
system.cpu.icache.tags.tagsInUse           249.142893                       # Average ticks per tags in use ((Tick/Count))
system.cpu.icache.tags.totalRefs               304738                       # Total number of references to valid blocks. (Count)
system.cpu.icache.tags.sampledRefs                905                       # Sample count of references to valid blocks. (Count)
system.cpu.icache.tags.avgRefs             336.727072                       # Average number of references to valid blocks. ((Count/Count))
system.cpu.icache.tags.warmupTick               87500                       # The tick when the warmup percentage was hit. (Tick)
system.cpu.icache.tags.occupancies::cpu.inst   249.142893                       # Average occupied blocks per tick, per requestor ((Count/Tick))
system.cpu.icache.tags.avgOccs::cpu.inst     0.973214                       # Average percentage of cache occupancy ((Ratio/Tick))
system.cpu.icache.tags.avgOccs::total        0.973214                       # Average percentage of cache occupancy ((Ratio/Tick))
system.cpu.icache.tags.occupanciesTaskId::1024          254                       # Occupied blocks per task id (Count)
system.cpu.icache.tags.ageTaskId_1024::4          254                       # Occupied blocks per task id, per block age (Count)
system.cpu.icache.tags.ratioOccsTaskId::1024     0.992188                       # Ratio of occupied blocks and all blocks, per task id (Ratio)
system.cpu.icache.tags.tagAccesses             611133                       # Number of tag accesses (Count)
system.cpu.icache.tags.dataAccesses            611133                       # Number of data accesses (Count)
system.cpu.icache.tags.power_state.pwrStateResidencyTicks::UNDEFINED 200860463500                       # Cumulative time (in ticks) in various power states (Tick)
system.cpu.lsq0.forwLoads                      183501                       # Number of loads that had data forwarded from stores (Count)
system.cpu.lsq0.squashedLoads                   17753                       # Number of loads squashed (Count)
system.cpu.lsq0.ignoredResponses                   48                       # Number of memory responses ignored because the instruction is squashed (Count)
system.cpu.lsq0.memOrderViolation                 180                       # Number of memory ordering violations (Count)
system.cpu.lsq0.squashedStores                1457558                       # Number of stores squashed (Count)
system.cpu.lsq0.rescheduledLoads                  121                       # Number of loads that were rescheduled (Count)
system.cpu.lsq0.blockedByCache                    176                       # Number of times an access to memory failed due to the cache being blocked (Count)
system.cpu.lsq0.loadToUse::samples            1972953                       # Distribution of cycle latency between the first time a load is issued and its completion
system.cpu.lsq0.loadToUse::mean              3.554787                       # Distribution of cycle latency between the first time a load is issued and its completion
system.cpu.lsq0.loadToUse::stdev             6.289514                       # Distribution of cycle latency between the first time a load is issued and its completion
system.cpu.lsq0.loadToUse::0-9                1968325     99.77%     99.77% # Distribution of cycle latency between the first time a load is issued and its completion
system.cpu.lsq0.loadToUse::10-19                  263      0.01%     99.78% # Distribution of cycle latency between the first time a load is issued and its completion
system.cpu.lsq0.loadToUse::20-29                 1809      0.09%     99.87% # Distribution of cycle latency between the first time a load is issued and its completion
system.cpu.lsq0.loadToUse::30-39                   81      0.00%     99.87% # Distribution of cycle latency between the first time a load is issued and its completion
system.cpu.lsq0.loadToUse::40-49                   24      0.00%     99.88% # Distribution of cycle latency between the first time a load is issued and its completion
system.cpu.lsq0.loadToUse::50-59                  299      0.02%     99.89% # Distribution of cycle latency between the first time a load is issued and its completion
system.cpu.lsq0.loadToUse::60-69                  463      0.02%     99.91% # Distribution of cycle latency between the first time a load is issued and its completion
system.cpu.lsq0.loadToUse::70-79                   15      0.00%     99.92% # Distribution of cycle latency between the first time a load is issued and its completion
system.cpu.lsq0.loadToUse::80-89                   35      0.00%     99.92% # Distribution of cycle latency between the first time a load is issued and its completion
system.cpu.lsq0.loadToUse::90-99                    4      0.00%     99.92% # Distribution of cycle latency between the first time a load is issued and its completion
system.cpu.lsq0.loadToUse::100-109                 22      0.00%     99.92% # Distribution of cycle latency between the first time a load is issued and its completion
system.cpu.lsq0.loadToUse::110-119                368      0.02%     99.94% # Distribution of cycle latency between the first time a load is issued and its completion
system.cpu.lsq0.loadToUse::120-129                527      0.03%     99.96% # Distribution of cycle latency between the first time a load is issued and its completion
system.cpu.lsq0.loadToUse::130-139                 98      0.00%     99.97% # Distribution of cycle latency between the first time a load is issued and its completion
system.cpu.lsq0.loadToUse::140-149                153      0.01%     99.98% # Distribution of cycle latency between the first time a load is issued and its completion
system.cpu.lsq0.loadToUse::150-159                 94      0.00%     99.98% # Distribution of cycle latency between the first time a load is issued and its completion
system.cpu.lsq0.loadToUse::160-169                 20      0.00%     99.98% # Distribution of cycle latency between the first time a load is issued and its completion
system.cpu.lsq0.loadToUse::170-179                 52      0.00%     99.98% # Distribution of cycle latency between the first time a load is issued and its completion
system.cpu.lsq0.loadToUse::180-189                 17      0.00%     99.99% # Distribution of cycle latency between the first time a load is issued and its completion
system.cpu.lsq0.loadToUse::190-199                 17      0.00%     99.99% # Distribution of cycle latency between the first time a load is issued and its completion
system.cpu.lsq0.loadToUse::200-209                 61      0.00%     99.99% # Distribution of cycle latency between the first time a load is issued and its completion
system.cpu.lsq0.loadToUse::210-219                 24      0.00%     99.99% # Distribution of cycle latency between the first time a load is issued and its completion
system.cpu.lsq0.loadToUse::220-229                  2      0.00%     99.99% # Distribution of cycle latency between the first time a load is issued and its completion
system.cpu.lsq0.loadToUse::240-249                  1      0.00%     99.99% # Distribution of cycle latency between the first time a load is issued and its completion
system.cpu.lsq0.loadToUse::250-259                  1      0.00%     99.99% # Distribution of cycle latency between the first time a load is issued and its completion
system.cpu.lsq0.loadToUse::280-289                  1      0.00%     99.99% # Distribution of cycle latency between the first time a load is issued and its completion
system.cpu.lsq0.loadToUse::290-299                  2      0.00%     99.99% # Distribution of cycle latency between the first time a load is issued and its completion
system.cpu.lsq0.loadToUse::overflows              175      0.01%    100.00% # Distribution of cycle latency between the first time a load is issued and its completion
system.cpu.lsq0.loadToUse::min_value                1                       # Distribution of cycle latency between the first time a load is issued and its completion
system.cpu.lsq0.loadToUse::max_value             1152                       # Distribution of cycle latency between the first time a load is issued and its completion
system.cpu.lsq0.loadToUse::total              1972953                       # Distribution of cycle latency between the first time a load is issued and its completion
system.cpu.mmu.dtb.instHits                         0                       # ITB inst hits (Count)
system.cpu.mmu.dtb.instMisses                       0                       # ITB inst misses (Count)
system.cpu.mmu.dtb.readHits                         0                       # DTB read hits (Count)
system.cpu.mmu.dtb.readMisses                       0                       # DTB read misses (Count)
system.cpu.mmu.dtb.writeHits                        0                       # DTB write hits (Count)
system.cpu.mmu.dtb.writeMisses                      0                       # DTB write misses (Count)
[...]
system.mem_ctrls.dram.perBankWrBursts::7       330690                       # Per bank write bursts (Count)
system.mem_ctrls.dram.perBankWrBursts::8       330841                       # Per bank write bursts (Count)
system.mem_ctrls.dram.perBankWrBursts::9       330762                       # Per bank write bursts (Count)
system.mem_ctrls.dram.perBankWrBursts::10       330808                       # Per bank write bursts (Count)
system.mem_ctrls.dram.perBankWrBursts::11       330822                       # Per bank write bursts (Count)
system.mem_ctrls.dram.perBankWrBursts::12       330827                       # Per bank write bursts (Count)
system.mem_ctrls.dram.perBankWrBursts::13       330703                       # Per bank write bursts (Count)
system.mem_ctrls.dram.perBankWrBursts::14       330624                       # Per bank write bursts (Count)
system.mem_ctrls.dram.perBankWrBursts::15       330624                       # Per bank write bursts (Count)
system.mem_ctrls.dram.totQLat            158403251500                       # Total ticks spent queuing (Tick)
system.mem_ctrls.dram.totBusLat           26625170000                       # Total ticks spent in databus transfers (Tick)
system.mem_ctrls.dram.totMemAccLat       258247639000                       # Total ticks spent from burst creation until serviced by the DRAM (Tick)
system.mem_ctrls.dram.avgQLat                29746.90                       # Average queueing delay per DRAM burst ((Tick/Count))
system.mem_ctrls.dram.avgBusLat               5000.00                       # Average bus latency per DRAM burst ((Tick/Count))
system.mem_ctrls.dram.avgMemAccLat           48496.90                       # Average memory access latency per DRAM burst ((Tick/Count))
system.mem_ctrls.dram.readRowHits             4862128                       # Number of row buffer hits during reads (Count)
system.mem_ctrls.dram.writeRowHits            4914400                       # Number of row buffer hits during writes (Count)
system.mem_ctrls.dram.readRowHitRate            91.31                       # Row buffer hit rate for reads (Ratio)
system.mem_ctrls.dram.writeRowHitRate           92.88                       # Row buffer hit rate for writes (Ratio)
system.mem_ctrls.dram.bytesPerActivate::samples       839781                       # Bytes accessed per row activation (Byte)
system.mem_ctrls.dram.bytesPerActivate::mean   809.071889                       # Bytes accessed per row activation (Byte)
system.mem_ctrls.dram.bytesPerActivate::gmean   668.740845                       # Bytes accessed per row activation (Byte)
system.mem_ctrls.dram.bytesPerActivate::stdev   331.182317                       # Bytes accessed per row activation (Byte)
system.mem_ctrls.dram.bytesPerActivate::0-127        21543      2.57%      2.57% # Bytes accessed per row activation (Byte)
system.mem_ctrls.dram.bytesPerActivate::128-255        98469     11.73%     14.29% # Bytes accessed per row activation (Byte)
system.mem_ctrls.dram.bytesPerActivate::256-383        20163      2.40%     16.69% # Bytes accessed per row activation (Byte)
system.mem_ctrls.dram.bytesPerActivate::384-511        32177      3.83%     20.52% # Bytes accessed per row activation (Byte)
system.mem_ctrls.dram.bytesPerActivate::512-639        26811      3.19%     23.72% # Bytes accessed per row activation (Byte)
system.mem_ctrls.dram.bytesPerActivate::640-767        16718      1.99%     25.71% # Bytes accessed per row activation (Byte)
system.mem_ctrls.dram.bytesPerActivate::768-895        26838      3.20%     28.90% # Bytes accessed per row activation (Byte)
system.mem_ctrls.dram.bytesPerActivate::896-1023       188614     22.46%     51.36% # Bytes accessed per row activation (Byte)
system.mem_ctrls.dram.bytesPerActivate::1024-1151       408448     48.64%    100.00% # Bytes accessed per row activation (Byte)
system.mem_ctrls.dram.bytesPerActivate::total       839781                       # Bytes accessed per row activation (Byte)
system.mem_ctrls.dram.bytesRead             340802176                       # Total number of bytes read from DRAM (Byte)
system.mem_ctrls.dram.bytesWritten          338641728                       # Total number of bytes written to DRAM (Byte)
system.mem_ctrls.dram.avgRdBW             1696.711090                       # Average DRAM read bandwidth in MiBytes/s ((Byte/Second))
system.mem_ctrls.dram.avgWrBW             1685.955126                       # Average DRAM write bandwidth in MiBytes/s ((Byte/Second))
system.mem_ctrls.dram.peakBW                 12800.00                       # Theoretical peak bandwidth in MiByte/s ((Byte/Second))
system.mem_ctrls.dram.busUtil                   26.43                       # Data bus utilization in percentage (Ratio)
system.mem_ctrls.dram.busUtilRead               13.26                       # Data bus utilization in percentage for reads (Ratio)
system.mem_ctrls.dram.busUtilWrite              13.17                       # Data bus utilization in percentage for writes (Ratio)
system.mem_ctrls.dram.pageHitRate               92.09                       # Row buffer hit rate, read and write combined (Ratio)
system.mem_ctrls.dram.power_state.pwrStateResidencyTicks::UNDEFINED 200860463500                       # Cumulative time (in ticks) in various power states (Tick)
system.mem_ctrls.dram.rank0.actEnergy      3001027680                       # Energy for activate commands per rank (pJ) (Joule)
system.mem_ctrls.dram.rank0.preEnergy      1595076450                       # Energy for precharge commands per rank (pJ) (Joule)
system.mem_ctrls.dram.rank0.readEnergy    19008186540                       # Energy for read commands per rank (pJ) (Joule)
system.mem_ctrls.dram.rank0.writeEnergy   13808288520                       # Energy for write commands per rank (pJ) (Joule)
system.mem_ctrls.dram.rank0.refreshEnergy 15855253440.000002                       # Energy for refresh commands per rank (pJ) (Joule)
system.mem_ctrls.dram.rank0.actBackEnergy  51681199470                       # Energy for active background per rank (pJ) (Joule)
system.mem_ctrls.dram.rank0.preBackEnergy  33609408000                       # Energy for precharge background per rank (pJ) (Joule)
system.mem_ctrls.dram.rank0.actPowerDownEnergy            0                       # Energy for active power-down per rank (pJ) (Joule)
system.mem_ctrls.dram.rank0.prePowerDownEnergy            0                       # Energy for precharge power-down per rank (pJ) (Joule)
system.mem_ctrls.dram.rank0.selfRefreshEnergy            0                       # Energy for self refresh per rank (pJ) (Joule)
system.mem_ctrls.dram.rank0.totalEnergy  138558440100                       # Total energy per rank (pJ) (Joule)
system.mem_ctrls.dram.rank0.averagePower   689.824357                       # Core power per rank (mW) (Watt)
system.mem_ctrls.dram.rank0.totalIdleTime            0                       # Total Idle time Per DRAM Rank (Tick)
system.mem_ctrls.dram.rank0.pwrStateTime::IDLE  85215500000                       # Time in different power states (Tick)
system.mem_ctrls.dram.rank0.pwrStateTime::REF   6706960000                       # Time in different power states (Tick)
system.mem_ctrls.dram.rank0.pwrStateTime::SREF            0                       # Time in different power states (Tick)
system.mem_ctrls.dram.rank0.pwrStateTime::PRE_PDN            0                       # Time in different power states (Tick)
system.mem_ctrls.dram.rank0.pwrStateTime::ACT 108938003500                       # Time in different power states (Tick)
system.mem_ctrls.dram.rank0.pwrStateTime::ACT_PDN            0                       # Time in different power states (Tick)
system.mem_ctrls.dram.rank1.actEnergy      2995022940                       # Energy for activate commands per rank (pJ) (Joule)
system.mem_ctrls.dram.rank1.preEnergy      1591892445                       # Energy for precharge commands per rank (pJ) (Joule)
system.mem_ctrls.dram.rank1.readEnergy    19012556220                       # Energy for read commands per rank (pJ) (Joule)
system.mem_ctrls.dram.rank1.writeEnergy   13812177420                       # Energy for write commands per rank (pJ) (Joule)
system.mem_ctrls.dram.rank1.refreshEnergy 15855253440.000002                       # Energy for refresh commands per rank (pJ) (Joule)
system.mem_ctrls.dram.rank1.actBackEnergy  51711301170                       # Energy for active background per rank (pJ) (Joule)
system.mem_ctrls.dram.rank1.preBackEnergy  33584059200                       # Energy for precharge background per rank (pJ) (Joule)
system.mem_ctrls.dram.rank1.actPowerDownEnergy            0                       # Energy for active power-down per rank (pJ) (Joule)
system.mem_ctrls.dram.rank1.prePowerDownEnergy            0                       # Energy for precharge power-down per rank (pJ) (Joule)
system.mem_ctrls.dram.rank1.selfRefreshEnergy            0                       # Energy for self refresh per rank (pJ) (Joule)
system.mem_ctrls.dram.rank1.totalEnergy  138562262835                       # Total energy per rank (pJ) (Joule)
system.mem_ctrls.dram.rank1.averagePower   689.843389                       # Core power per rank (mW) (Watt)
system.mem_ctrls.dram.rank1.totalIdleTime            0                       # Total Idle time Per DRAM Rank (Tick)
system.mem_ctrls.dram.rank1.pwrStateTime::IDLE  85136424000                       # Time in different power states (Tick)
system.mem_ctrls.dram.rank1.pwrStateTime::REF   6706960000                       # Time in different power states (Tick)
system.mem_ctrls.dram.rank1.pwrStateTime::SREF            0                       # Time in different power states (Tick)
system.mem_ctrls.dram.rank1.pwrStateTime::PRE_PDN            0                       # Time in different power states (Tick)
system.mem_ctrls.dram.rank1.pwrStateTime::ACT 109017079500                       # Time in different power states (Tick)
system.mem_ctrls.dram.rank1.pwrStateTime::ACT_PDN            0                       # Time in different power states (Tick)
system.mem_ctrls.power_state.pwrStateResidencyTicks::UNDEFINED 200860463500                       # Cumulative time (in ticks) in various power states (Tick)
system.membus.transDist::ReadResp                 995                       # Transaction distribution (Count)
system.membus.transDist::WritebackDirty       5291303                       # Transaction distribution (Count)
system.membus.transDist::CleanEvict               698                       # Transaction distribution (Count)
system.membus.transDist::ReadExReq            5324039                       # Transaction distribution (Count)
system.membus.transDist::ReadExResp           5324039                       # Transaction distribution (Count)
system.membus.transDist::ReadSharedReq            995                       # Transaction distribution (Count)
system.membus.pktCount_system.l2.mem_side_port::system.mem_ctrls.port     15942069                       # Packet count per connected requestor and responder (Count)
system.membus.pktCount::total                15942069                       # Packet count per connected requestor and responder (Count)
system.membus.pktSize_system.l2.mem_side_port::system.mem_ctrls.port    679445568                       # Cumulative packet size per connected requestor and responder (Byte)
system.membus.pktSize::total                679445568                       # Cumulative packet size per connected requestor and responder (Byte)
system.membus.snoops                                0                       # Total snoops (Count)
system.membus.snoopTraffic                          0                       # Total snoop traffic (Byte)
system.membus.snoopFanout::samples            5325034                       # Request fanout histogram (Count)
system.membus.snoopFanout::mean                     0                       # Request fanout histogram (Count)
system.membus.snoopFanout::stdev                    0                       # Request fanout histogram (Count)
system.membus.snoopFanout::underflows               0      0.00%      0.00% # Request fanout histogram (Count)
system.membus.snoopFanout::0                  5325034    100.00%    100.00% # Request fanout histogram (Count)
system.membus.snoopFanout::1                        0      0.00%    100.00% # Request fanout histogram (Count)
system.membus.snoopFanout::overflows                0      0.00%    100.00% # Request fanout histogram (Count)
system.membus.snoopFanout::min_value                0                       # Request fanout histogram (Count)
system.membus.snoopFanout::max_value                0                       # Request fanout histogram (Count)
system.membus.snoopFanout::total              5325034                       # Request fanout histogram (Count)
system.membus.power_state.pwrStateResidencyTicks::UNDEFINED 200860463500                       # Cumulative time (in ticks) in various power states (Tick)
system.membus.reqLayer0.occupancy         33562372500                       # Layer occupancy (ticks) (Tick)
system.membus.reqLayer0.utilization               0.2                       # Layer utilization (Ratio)
system.membus.respLayer1.occupancy        27368010500                       # Layer occupancy (ticks) (Tick)
system.membus.respLayer1.utilization              0.1                       # Layer utilization (Ratio)
system.membus.snoop_filter.totRequests       10617035                       # Total number of requests made to the snoop filter. (Count)
system.membus.snoop_filter.hitSingleRequests      5292011                       # Number of requests hitting in the snoop filter with a single holder of the requested data. (Count)
system.membus.snoop_filter.hitMultiRequests            0                       # Number of requests hitting in the snoop filter with multiple (>1) holders of the requested data. (Count)
system.membus.snoop_filter.totSnoops                0                       # Total number of snoops made to the snoop filter. (Count)
system.membus.snoop_filter.hitSingleSnoops            0                       # Number of snoops hitting in the snoop filter with a single holder of the requested data. (Count)
system.membus.snoop_filter.hitMultiSnoops            0                       # Number of snoops hitting in the snoop filter with multiple (>1) holders of the requested data. (Count)
system.tol2bus.transDist::ReadResp               1939                       # Transaction distribution (Count)
system.tol2bus.transDist::WritebackDirty     10615864                       # Transaction distribution (Count)
system.tol2bus.transDist::WritebackClean          651                       # Transaction distribution (Count)
system.tol2bus.transDist::CleanEvict             1994                       # Transaction distribution (Count)
system.tol2bus.transDist::ReadExReq           5324625                       # Transaction distribution (Count)
system.tol2bus.transDist::ReadExResp          5324624                       # Transaction distribution (Count)
system.tol2bus.transDist::ReadCleanReq            905                       # Transaction distribution (Count)
system.tol2bus.transDist::ReadSharedReq          1034                       # Transaction distribution (Count)
system.tol2bus.pktCount_system.cpu.icache.mem_side_port::system.l2.cpu_side_port         2461                       # Packet count per connected requestor and responder (Count)
system.tol2bus.pktCount_system.cpu.dcache.mem_side_port::system.l2.cpu_side_port     15976718                       # Packet count per connected requestor and responder (Count)
system.tol2bus.pktCount::total               15979179                       # Packet count per connected requestor and responder (Count)
system.tol2bus.pktSize_system.cpu.icache.mem_side_port::system.l2.cpu_side_port        99584                       # Cumulative packet size per connected requestor and responder (Byte)
system.tol2bus.pktSize_system.cpu.dcache.mem_side_port::system.l2.cpu_side_port    681613952                       # Cumulative packet size per connected requestor and responder (Byte)
system.tol2bus.pktSize::total               681713536                       # Cumulative packet size per connected requestor and responder (Byte)
system.tol2bus.snoops                         5292457                       # Total snoops (Count)
system.tol2bus.snoopTraffic                 338643456                       # Total snoop traffic (Byte)
system.tol2bus.snoopFanout::samples          10619021                       # Request fanout histogram (Count)
system.tol2bus.snoopFanout::mean             0.000053                       # Request fanout histogram (Count)
system.tol2bus.snoopFanout::stdev            0.007294                       # Request fanout histogram (Count)
system.tol2bus.snoopFanout::underflows              0      0.00%      0.00% # Request fanout histogram (Count)
system.tol2bus.snoopFanout::0                10618456     99.99%     99.99% # Request fanout histogram (Count)
system.tol2bus.snoopFanout::1                     565      0.01%    100.00% # Request fanout histogram (Count)
system.tol2bus.snoopFanout::2                       0      0.00%    100.00% # Request fanout histogram (Count)
system.tol2bus.snoopFanout::overflows               0      0.00%    100.00% # Request fanout histogram (Count)
system.tol2bus.snoopFanout::min_value               0                       # Request fanout histogram (Count)
system.tol2bus.snoopFanout::max_value               1                       # Request fanout histogram (Count)
system.tol2bus.snoopFanout::total            10619021                       # Request fanout histogram (Count)
system.tol2bus.power_state.pwrStateResidencyTicks::UNDEFINED 200860463500                       # Cumulative time (in ticks) in various power states (Tick)
system.tol2bus.reqLayer0.occupancy        10651519000                       # Layer occupancy (ticks) (Tick)
system.tol2bus.reqLayer0.utilization              0.1                       # Layer utilization (Ratio)
system.tol2bus.respLayer0.occupancy           1357999                       # Layer occupancy (ticks) (Tick)
system.tol2bus.respLayer0.utilization             0.0                       # Layer utilization (Ratio)
system.tol2bus.respLayer1.occupancy        7988492988                       # Layer occupancy (ticks) (Tick)
system.tol2bus.respLayer1.utilization             0.0                       # Layer utilization (Ratio)
system.tol2bus.snoop_filter.totRequests      10652616                       # Total number of requests made to the snoop filter. (Count)
system.tol2bus.snoop_filter.hitSingleRequests      5326052                       # Number of requests hitting in the snoop filter with a single holder of the requested data. (Count)
system.tol2bus.snoop_filter.hitMultiRequests          110                       # Number of requests hitting in the snoop filter with multiple (>1) holders of the requested data. (Count)
system.tol2bus.snoop_filter.totSnoops             455                       # Total number of snoops made to the snoop filter. (Count)
system.tol2bus.snoop_filter.hitSingleSnoops          455                       # Number of snoops hitting in the snoop filter with a single holder of the requested data. (Count)
system.tol2bus.snoop_filter.hitMultiSnoops            0                       # Number of snoops hitting in the snoop filter with multiple (>1) holders of the requested data. (Count)
system.voltage_domain.voltage                       1                       # Voltage in Volts (Volt)
system.workload.inst.arm                            0                       # number of arm instructions executed (Count)
system.workload.inst.quiesce                        0                       # number of quiesce instructions executed (Count)

---------- End Simulation Statistics   ----------
