
---------- Begin Simulation Statistics ----------
simSeconds                                   0.202009                       # Number of seconds simulated (Second)
simTicks                                 202008512500                       # Number of ticks simulated (Tick)
finalTick                                202008512500                       # Number of ticks from beginning of simulation (restored from checkpoints and never reset) (Tick)
simFreq                                  1000000000000                       # The number of ticks per simulated second ((Tick/Second))
hostSeconds                                   1620.89                       # Real time elapsed on the host (Second)
hostTickRate                                124627928                       # The number of ticks simulated per host second (ticks/s) ((Tick/Second))
hostMemory                                     746728                       # Number of bytes of host memory used (Byte)
simInsts                                    100000001                       # Number of instructions simulated (Count)
simOps                                      185151994                       # Number of ops (including micro ops) simulated (Count)
hostInstRate                                    61694                       # Simulator instruction rate (inst/s) ((Count/Second))
hostOpRate                                     114228                       # Simulator op (including micro ops) rate (op/s) ((Count/Second))
system.clk_domain.clock                          1000                       # Clock period in ticks (Tick)
system.cpu.numCycles                        404017026                       # Number of cpu cycles simulated (Cycle)
system.cpu.numWorkItemsStarted                      0                       # Number of work items this cpu started (Count)
system.cpu.numWorkItemsCompleted                    0                       # Number of work items this cpu completed (Count)
system.cpu.instsAdded                       188238666                       # Number of instructions added to the IQ (excludes non-spec) (Count)
system.cpu.nonSpecInstsAdded                      101                       # Number of non-speculative instructions added to the IQ (Count)
system.cpu.instsIssued                      188216749                       # Number of instructions issued (Count)
system.cpu.squashedInstsIssued                    149                       # Number of squashed instructions issued (Count)
system.cpu.squashedInstsExamined              3086754                       # Number of squashed instructions iterated over during squash; mainly for profiling (Count)
system.cpu.squashedOperandsExamined           4500588                       # Number of squashed operands that are examined and possibly removed from graph (Count)
system.cpu.squashedNonSpecRemoved                  14                       # Number of squashed non-spec instructions that were removed (Count)
system.cpu.numIssuedDist::samples           403952763                       # Number of insts issued each cycle (Count)
system.cpu.numIssuedDist::mean               0.465938                       # Number of insts issued each cycle (Count)
system.cpu.numIssuedDist::stdev              1.260466                       # Number of insts issued each cycle (Count)
system.cpu.numIssuedDist::underflows                0      0.00%      0.00% # Number of insts issued each cycle (Count)
system.cpu.numIssuedDist::0                 347705878     86.08%     86.08% # Number of insts issued each cycle (Count)
system.cpu.numIssuedDist::1                  10926244      2.70%     88.78% # Number of insts issued each cycle (Count)
system.cpu.numIssuedDist::2                   2104552      0.52%     89.30% # Number of insts issued each cycle (Count)
system.cpu.numIssuedDist::3                   8204039      2.03%     91.33% # Number of insts issued each cycle (Count)
system.cpu.numIssuedDist::4                  26724821      6.62%     97.95% # Number of insts issued each cycle (Count)
system.cpu.numIssuedDist::5                   8180254      2.03%     99.97% # Number of insts issued each cycle (Count)
system.cpu.numIssuedDist::6                     81180      0.02%     99.99% # Number of insts issued each cycle (Count)
system.cpu.numIssuedDist::7                     24710      0.01%    100.00% # Number of insts issued each cycle (Count)
system.cpu.numIssuedDist::8                      1085      0.00%    100.00% # Number of insts issued each cycle (Count)
system.cpu.numIssuedDist::overflows                 0      0.00%    100.00% # Number of insts issued each cycle (Count)
system.cpu.numIssuedDist::min_value                 0                       # Number of insts issued each cycle (Count)
system.cpu.numIssuedDist::max_value                 8                       # Number of insts issued each cycle (Count)
system.cpu.numIssuedDist::total             403952763                       # Number of insts issued each cycle (Count)
system.cpu.statFuBusy::No_OpClass                   0      0.00%      0.00% # attempts to use FU when none available (Count)
system.cpu.statFuBusy::IntAlu                     125      0.16%      0.16% # attempts to use FU when none available (Count)
system.cpu.statFuBusy::IntMult                      0      0.00%      0.16% # attempts to use FU when none available (Count)
system.cpu.statFuBusy::IntDiv                       0      0.00%      0.16% # attempts to use FU when none available (Count)
system.cpu.statFuBusy::FloatAdd                     0      0.00%      0.16% # attempts to use FU when none available (Count)
system.cpu.statFuBusy::FloatCmp                     0      0.00%      0.16% # attempts to use FU when none available (Count)
system.cpu.statFuBusy::FloatCvt                     0      0.00%      0.16% # attempts to use FU when none available (Count)
system.cpu.statFuBusy::FloatMult                    0      0.00%      0.16% # attempts to use FU when none available (Count)
system.cpu.statFuBusy::FloatMultAcc                 0      0.00%      0.16% # attempts to use FU when none available (Count)
system.cpu.statFuBusy::FloatDiv                     0      0.00%      0.16% # attempts to use FU when none available (Count)
system.cpu.statFuBusy::FloatMisc                    0      0.00%      0.16% # attempts to use FU when none available (Count)
system.cpu.statFuBusy::FloatSqrt                    0      0.00%      0.16% # attempts to use FU when none available (Count)
system.cpu.statFuBusy::SimdAdd                      0      0.00%      0.16% # attempts to use FU when none available (Count)
system.cpu.statFuBusy::SimdAddAcc                   0      0.00%      0.16% # attempts to use FU when none available (Count)
system.cpu.statFuBusy::SimdAlu                      0      0.00%      0.16% # attempts to use FU when none available (Count)
system.cpu.statFuBusy::SimdCmp                      0      0.00%      0.16% # attempts to use FU when none available (Count)
system.cpu.statFuBusy::SimdCvt                      0      0.00%      0.16% # attempts to use FU when none available (Count)
system.cpu.statFuBusy::SimdMisc                     0      0.00%      0.16% # attempts to use FU when none available (Count)
system.cpu.statFuBusy::SimdMult                     0      0.00%      0.16% # attempts to use FU when none available (Count)
system.cpu.statFuBusy::SimdMultAcc                  0      0.00%      0.16% # attempts to use FU when none available (Count)
system.cpu.statFuBusy::SimdShift                    0      0.00%      0.16% # attempts to use FU when none available (Count)
system.cpu.statFuBusy::SimdShiftAcc                 0      0.00%      0.16% # attempts to use FU when none available (Count)
system.cpu.statFuBusy::SimdDiv                      0      0.00%      0.16% # attempts to use FU when none available (Count)
system.cpu.statFuBusy::SimdSqrt                     0      0.00%      0.16% # attempts to use FU when none available (Count)
system.cpu.statFuBusy::SimdFloatAdd                 0      0.00%      0.16% # attempts to use FU when none available (Count)
system.cpu.statFuBusy::SimdFloatAlu                 0      0.00%      0.16% # attempts to use FU when none available (Count)
system.cpu.statFuBusy::SimdFloatCmp                 0      0.00%      0.16% # attempts to use FU when none available (Count)
system.cpu.statFuBusy::SimdFloatCvt                 0      0.00%      0.16% # attempts to use FU when none available (Count)
system.cpu.statFuBusy::SimdFloatDiv                 0      0.00%      0.16% # attempts to use FU when none available (Count)
system.cpu.statFuBusy::SimdFloatMisc                0      0.00%      0.16% # attempts to use FU when none available (Count)
system.cpu.statFuBusy::SimdFloatMult                0      0.00%      0.16% # attempts to use FU when none available (Count)
system.cpu.statFuBusy::SimdFloatMultAcc             0      0.00%      0.16% # attempts to use FU when none available (Count)
system.cpu.statFuBusy::SimdFloatSqrt                0      0.00%      0.16% # attempts to use FU when none available (Count)
system.cpu.statFuBusy::SimdReduceAdd                0      0.00%      0.16% # attempts to use FU when none available (Count)
system.cpu.statFuBusy::SimdReduceAlu                0      0.00%      0.16% # attempts to use FU when none available (Count)
system.cpu.statFuBusy::SimdReduceCmp                0      0.00%      0.16% # attempts to use FU when none available (Count)
system.cpu.statFuBusy::SimdFloatReduceAdd            0      0.00%      0.16% # attempts to use FU when none available (Count)
system.cpu.statFuBusy::SimdFloatReduceCmp            0      0.00%      0.16% # attempts to use FU when none available (Count)
system.cpu.statFuBusy::SimdAes                      0      0.00%      0.16% # attempts to use FU when none available (Count)
system.cpu.statFuBusy::SimdAesMix                   0      0.00%      0.16% # attempts to use FU when none available (Count)
system.cpu.statFuBusy::SimdSha1Hash                 0      0.00%      0.16% # attempts to use FU when none available (Count)
system.cpu.statFuBusy::SimdSha1Hash2                0      0.00%      0.16% # attempts to use FU when none available (Count)
system.cpu.statFuBusy::SimdSha256Hash               0      0.00%      0.16% # attempts to use FU when none available (Count)
system.cpu.statFuBusy::SimdSha256Hash2              0      0.00%      0.16% # attempts to use FU when none available (Count)
system.cpu.statFuBusy::SimdShaSigma2                0      0.00%      0.16% # attempts to use FU when none available (Count)
system.cpu.statFuBusy::SimdShaSigma3                0      0.00%      0.16% # attempts to use FU when none available (Count)
system.cpu.statFuBusy::SimdPredAlu                  0      0.00%      0.16% # attempts to use FU when none available (Count)
system.cpu.statFuBusy::MemRead                  75808     98.81%     98.98% # attempts to use FU when none available (Count)
system.cpu.statFuBusy::MemWrite                   785      1.02%    100.00% # attempts to use FU when none available (Count)
system.cpu.statFuBusy::FloatMemRead                 0      0.00%    100.00% # attempts to use FU when none available (Count)
system.cpu.statFuBusy::FloatMemWrite                0      0.00%    100.00% # attempts to use FU when none available (Count)
system.cpu.statFuBusy::IprAccess                    0      0.00%    100.00% # attempts to use FU when none available (Count)
system.cpu.statFuBusy::InstPrefetch                 0      0.00%    100.00% # attempts to use FU when none available (Count)
system.cpu.statIssuedInstType_0::No_OpClass            5      0.00%      0.00% # Number of instructions issued per FU type, per thread (Count)
system.cpu.statIssuedInstType_0::IntAlu      99460578     52.84%     52.84% # Number of instructions issued per FU type, per thread (Count)
system.cpu.statIssuedInstType_0::IntMult           82      0.00%     52.84% # Number of instructions issued per FU type, per thread (Count)
system.cpu.statIssuedInstType_0::IntDiv             0      0.00%     52.84% # Number of instructions issued per FU type, per thread (Count)
system.cpu.statIssuedInstType_0::FloatAdd            0      0.00%     52.84% # Number of instructions issued per FU type, per thread (Count)
system.cpu.statIssuedInstType_0::FloatCmp            0      0.00%     52.84% # Number of instructions issued per FU type, per thread (Count)
system.cpu.statIssuedInstType_0::FloatCvt            0      0.00%     52.84% # Number of instructions issued per FU type, per thread (Count)
system.cpu.statIssuedInstType_0::FloatMult            0      0.00%     52.84% # Number of instructions issued per FU type, per thread (Count)
system.cpu.statIssuedInstType_0::FloatMultAcc            0      0.00%     52.84% # Number of instructions issued per FU type, per thread (Count)
system.cpu.statIssuedInstType_0::FloatDiv            0      0.00%     52.84% # Number of instructions issued per FU type, per thread (Count)
system.cpu.statIssuedInstType_0::FloatMisc            0      0.00%     52.84% # Number of instructions issued per FU type, per thread (Count)
system.cpu.statIssuedInstType_0::FloatSqrt            0      0.00%     52.84% # Number of instructions issued per FU type, per thread (Count)
system.cpu.statIssuedInstType_0::SimdAdd            0      0.00%     52.84% # Number of instructions issued per FU type, per thread (Count)
system.cpu.statIssuedInstType_0::SimdAddAcc            0      0.00%     52.84% # Number of instructions issued per FU type, per thread (Count)
system.cpu.statIssuedInstType_0::SimdAlu            0      0.00%     52.84% # Number of instructions issued per FU type, per thread (Count)
system.cpu.statIssuedInstType_0::SimdCmp            0      0.00%     52.84% # Number of instructions issued per FU type, per thread (Count)
system.cpu.statIssuedInstType_0::SimdCvt            0      0.00%     52.84% # Number of instructions issued per FU type, per thread (Count)
system.cpu.statIssuedInstType_0::SimdMisc            0      0.00%     52.84% # Number of instructions issued per FU type, per thread (Count)
system.cpu.statIssuedInstType_0::SimdMult            0      0.00%     52.84% # Number of instructions issued per FU type, per thread (Count)
system.cpu.statIssuedInstType_0::SimdMultAcc            0      0.00%     52.84% # Number of instructions issued per FU type, per thread (Count)
system.cpu.statIssuedInstType_0::SimdShift            0      0.00%     52.84% # Number of instructions issued per FU type, per thread (Count)
system.cpu.statIssuedInstType_0::SimdShiftAcc            0      0.00%     52.84% # Number of instructions issued per FU type, per thread (Count)
system.cpu.statIssuedInstType_0::SimdDiv            0      0.00%     52.84% # Number of instructions issued per FU type, per thread (Count)
system.cpu.statIssuedInstType_0::SimdSqrt            0      0.00%     52.84% # Number of instructions issued per FU type, per thread (Count)
system.cpu.statIssuedInstType_0::SimdFloatAdd            0      0.00%     52.84% # Number of instructions issued per FU type, per thread (Count)
system.cpu.statIssuedInstType_0::SimdFloatAlu            0      0.00%     52.84% # Number of instructions issued per FU type, per thread (Count)
system.cpu.statIssuedInstType_0::SimdFloatCmp            0      0.00%     52.84% # Number of instructions issued per FU type, per thread (Count)
system.cpu.statIssuedInstType_0::SimdFloatCvt            0      0.00%     52.84% # Number of instructions issued per FU type, per thread (Count)
system.cpu.statIssuedInstType_0::SimdFloatDiv            0      0.00%     52.84% # Number of instructions issued per FU type, per thread (Count)
system.cpu.statIssuedInstType_0::SimdFloatMisc            0      0.00%     52.84% # Number of instructions issued per FU type, per thread (Count)
system.cpu.statIssuedInstType_0::SimdFloatMult            0      0.00%     52.84% # Number of instructions issued per FU type, per thread (Count)
system.cpu.statIssuedInstType_0::SimdFloatMultAcc            0      0.00%     52.84% # Number of instructions issued per FU type, per thread (Count)
system.cpu.statIssuedInstType_0::SimdFloatSqrt            0      0.00%     52.84% # Number of instructions issued per FU type, per thread (Count)
system.cpu.statIssuedInstType_0::SimdReduceAdd            0      0.00%     52.84% # Number of instructions issued per FU type, per thread (Count)
system.cpu.statIssuedInstType_0::SimdReduceAlu            0      0.00%     52.84% # Number of instructions issued per FU type, per thread (Count)
system.cpu.statIssuedInstType_0::SimdReduceCmp            0      0.00%     52.84% # Number of instructions issued per FU type, per thread (Count)
system.cpu.statIssuedInstType_0::SimdFloatReduceAdd            0      0.00%     52.84% # Number of instructions issued per FU type, per thread (Count)
system.cpu.statIssuedInstType_0::SimdFloatReduceCmp            0      0.00%     52.84% # Number of instructions issued per FU type, per thread (Count)
system.cpu.statIssuedInstType_0::SimdAes            0      0.00%     52.84% # Number of instructions issued per FU type, per thread (Count)
system.cpu.statIssuedInstType_0::SimdAesMix            0      0.00%     52.84% # Number of instructions issued per FU type, per thread (Count)
system.cpu.statIssuedInstType_0::SimdSha1Hash            0      0.00%     52.84% # Number of instructions issued per FU type, per thread (Count)
system.cpu.statIssuedInstType_0::SimdSha1Hash2            0      0.00%     52.84% # Number of instructions issued per FU type, per thread (Count)
system.cpu.statIssuedInstType_0::SimdSha256Hash            0      0.00%     52.84% # Number of instructions issued per FU type, per thread (Count)
system.cpu.statIssuedInstType_0::SimdSha256Hash2            0      0.00%     52.84% # Number of instructions issued per FU type, per thread (Count)
system.cpu.statIssuedInstType_0::SimdShaSigma2            0      0.00%     52.84% # Number of instructions issued per FU type, per thread (Count)
system.cpu.statIssuedInstType_0::SimdShaSigma3            0      0.00%     52.84% # Number of instructions issued per FU type, per thread (Count)
system.cpu.statIssuedInstType_0::SimdPredAlu            0      0.00%     52.84% # Number of instructions issued per FU type, per thread (Count)
system.cpu.statIssuedInstType_0::MemRead      1989398      1.06%     53.90% # Number of instructions issued per FU type, per thread (Count)
system.cpu.statIssuedInstType_0::MemWrite     86766686     46.10%    100.00% # Number of instructions issued per FU type, per thread (Count)
system.cpu.statIssuedInstType_0::FloatMemRead            0      0.00%    100.00% # Number of instructions issued per FU type, per thread (Count)
system.cpu.statIssuedInstType_0::FloatMemWrite            0      0.00%    100.00% # Number of instructions issued per FU type, per thread (Count)
system.cpu.statIssuedInstType_0::IprAccess            0      0.00%    100.00% # Number of instructions issued per FU type, per thread (Count)
system.cpu.statIssuedInstType_0::InstPrefetch            0      0.00%    100.00% # Number of instructions issued per FU type, per thread (Count)
system.cpu.statIssuedInstType_0::total      188216749                       # Number of instructions issued per FU type, per thread (Count)
system.cpu.issueRate                         0.465863                       # Inst issue rate ((Count/Cycle))
system.cpu.fuBusy                               76718                       # FU busy when requested (Count)
system.cpu.fuBusyRate                        0.000408                       # FU busy rate (busy events/executed inst) ((Count/Count))
system.cpu.intInstQueueReads                780463123                       # Number of integer instruction queue reads (Count)
system.cpu.intInstQueueWrites               191325700                       # Number of integer instruction queue writes (Count)
system.cpu.intInstQueueWakeupAccesses       187481652                       # Number of integer instruction queue wakeup accesses (Count)
system.cpu.fpInstQueueReads                         0                       # Number of floating instruction queue reads (Count)
system.cpu.fpInstQueueWrites                        0                       # Number of floating instruction queue writes (Count)
system.cpu.fpInstQueueWakeupAccesses                0                       # Number of floating instruction queue wakeup accesses (Count)
system.cpu.vecInstQueueReads                        0                       # Number of vector instruction queue reads (Count)
system.cpu.vecInstQueueWrites                       0                       # Number of vector instruction queue writes (Count)
system.cpu.vecInstQueueWakeupAccesses               0                       # Number of vector instruction queue wakeup accesses (Count)
system.cpu.intAluAccesses                   188293462                       # Number of integer alu accesses (Count)
system.cpu.fpAluAccesses                            0                       # Number of floating point alu accesses (Count)
system.cpu.vecAluAccesses                           0                       # Number of vector alu accesses (Count)
system.cpu.idleCycles                               0                       # Number of cycles IEW is idle (Cycle)
system.cpu.squashCycles                         46189                       # Number of cycles IEW is squashing (Cycle)
system.cpu.blockCycles                         188858                       # Number of cycles IEW is blocking (Cycle)
system.cpu.unblockCycles                        45196                       # Number of cycles IEW is unblocking (Cycle)
system.cpu.dispatchedInsts                  188238767                       # Number of instructions dispatched to IQ (Count)
system.cpu.dispSquashedInsts                      423                       # Number of squashed instructions skipped by dispatch (Count)
system.cpu.dispLoadInsts                      1990321                       # Number of dispatched load instructions (Count)
system.cpu.dispStoreInsts                    86771095                       # Number of dispatched store instructions (Count)
system.cpu.dispNonSpecInsts                        67                       # Number of dispatched non-speculative instructions (Count)
system.cpu.iqFullEvents                           212                       # Number of times the IQ has become full, causing a stall (Count)
system.cpu.lsqFullEvents                        44613                       # Number of times the LSQ has become full, causing a stall (Count)
system.cpu.memOrderViolationEvents                186                       # Number of memory order violations (Count)
system.cpu.predictedTakenIncorrect                522                       # Number of branches that were predicted taken incorrectly (Count)
system.cpu.predictedNotTakenIncorrect            1821                       # Number of branches that were predicted not taken incorrectly (Count)
system.cpu.branchMispredicts                     2343                       # Number of branch mispredicts detected at execute (Count)
system.cpu.numInsts                         188213665                       # Number of executed instructions (Count)
system.cpu.numLoadInsts                       1987962                       # Number of load instructions executed (Count)
system.cpu.numSquashedInsts                      3079                       # Number of squashed instructions skipped in execute (Count)
system.cpu.numSwp                                   0                       # Number of swp insts executed (Count)
system.cpu.numNop                                   0                       # Number of nop insts executed (Count)
system.cpu.numRefs                           88754149                       # Number of memory reference insts executed (Count)
system.cpu.numBranches                       10869723                       # Number of branches executed (Count)
system.cpu.numStoreInsts                     86766187                       # Number of stores executed (Count)
system.cpu.numRate                           0.465856                       # Inst execution rate ((Count/Cycle))
system.cpu.instsToCommit                    188207733                       # Cumulative count of insts sent to commit (Count)
system.cpu.writebackCount                   187481652                       # Cumulative count of insts written-back (Count)
system.cpu.producerInst                      82687716                       # Number of instructions producing a value (Count)
system.cpu.consumerInst                     410999927                       # Number of instructions consuming a value (Count)
system.cpu.wbRate                            0.464044                       # Insts written-back per cycle ((Count/Cycle))
system.cpu.wbFanout                          0.201187                       # Average fanout of values written-back ((Count/Count))
system.cpu.timesIdled                             872                       # Number of times that the entire CPU went into an idle state and unscheduled itself (Count)
system.cpu.idleCycles                           64263                       # Total number of cycles that the CPU has spent unscheduled due to idling (Cycle)
system.cpu.committedInsts                   100000001                       # Number of Instructions Simulated (Count)
system.cpu.committedOps                     185151994                       # Number of Ops (including micro ops) Simulated (Count)
system.cpu.cpi                               4.040170                       # CPI: Cycles Per Instruction ((Cycle/Count))
system.cpu.totalCpi                          4.040170                       # CPI: Total CPI of All Threads ((Cycle/Count))
system.cpu.ipc                               0.247514                       # IPC: Instructions Per Cycle ((Count/Cycle))
system.cpu.totalIpc                          0.247514                       # IPC: Total IPC of All Threads ((Count/Cycle))
system.cpu.intRegfileReads                  265060621                       # Number of integer regfile reads (Count)
system.cpu.intRegfileWrites                  90316642                       # Number of integer regfile writes (Count)
system.cpu.vecRegfileReads                         16                       # number of vector regfile reads (Count)
system.cpu.ccRegfileReads                   570586707                       # number of cc regfile reads (Count)
system.cpu.ccRegfileWrites                  130606700                       # number of cc regfile writes (Count)
system.cpu.miscRegfileReads                 355916355                       # number of misc regfile reads (Count)
system.cpu.miscRegfileWrites                      137                       # number of misc regfile writes (Count)
system.cpu.MemDepUnit__0.insertedLoads        1990321                       # Number of loads inserted to the mem dependence unit. (Count)
system.cpu.MemDepUnit__0.insertedStores      86771095                       # Number of stores inserted to the mem dependence unit. (Count)
system.cpu.MemDepUnit__0.conflictingLoads       156241                       # Number of conflicting loads. (Count)
system.cpu.MemDepUnit__0.conflictingStores        24838                       # Number of conflicting stores. (Count)
system.cpu.MemDepUnit__1.insertedLoads              0                       # Number of loads inserted to the mem dependence unit. (Count)
system.cpu.MemDepUnit__1.insertedStores             0                       # Number of stores inserted to the mem dependence unit. (Count)
system.cpu.MemDepUnit__1.conflictingLoads            0                       # Number of conflicting loads. (Count)
system.cpu.MemDepUnit__1.conflictingStores            0                       # Number of conflicting stores. (Count)
system.cpu.MemDepUnit__2.insertedLoads              0                       # Number of loads inserted to the mem dependence unit. (Count)
system.cpu.MemDepUnit__2.insertedStores             0                       # Number of stores inserted to the mem dependence unit. (Count)
system.cpu.MemDepUnit__2.conflictingLoads            0                       # Number of conflicting loads. (Count)
system.cpu.MemDepUnit__2.conflictingStores            0                       # Number of conflicting stores. (Count)
system.cpu.MemDepUnit__3.insertedLoads              0                       # Number of loads inserted to the mem dependence unit. (Count)
system.cpu.MemDepUnit__3.insertedStores             0                       # Number of stores inserted to the mem dependence unit. (Count)
system.cpu.MemDepUnit__3.conflictingLoads            0                       # Number of conflicting loads. (Count)
system.cpu.MemDepUnit__3.conflictingStores            0                       # Number of conflicting stores. (Count)
system.cpu.branchPred.lookups                11051751                       # Number of BP lookups (Count)
system.cpu.branchPred.condPredicted          11039893                       # Number of conditional branches predicted (Count)
system.cpu.branchPred.condIncorrect              2452                       # Number of conditional branches incorrect (Count)
system.cpu.branchPred.BTBLookups             11037852                       # Number of BTB lookups (Count)
system.cpu.branchPred.BTBHits                11037094                       # Number of BTB hits (Count)
system.cpu.branchPred.BTBMissPct             0.000069                       # BTB Miss Percentage (Ratio)
system.cpu.branchPred.BTBHitRatio            0.999931                       # BTB Hit Ratio (Ratio)
system.cpu.branchPred.RASUsed                    3799                       # Number of times the RAS was used to get a target. (Count)
system.cpu.branchPred.RASIncorrect                 72                       # Number of incorrect RAS predictions. (Count)
system.cpu.branchPred.indirectLookups             545                       # Number of indirect predictor lookups. (Count)
system.cpu.branchPred.indirectHits                242                       # Number of indirect target hits. (Count)
system.cpu.branchPred.indirectMisses              303                       # Number of indirect misses. (Count)
system.cpu.branchPred.indirectMispredicted          163                       # Number of mispredicted indirect branches. (Count)
system.cpu.commit.commitSquashedInsts         1768708                       # The number of squashed insts skipped by commit (Count)
system.cpu.commit.commitNonSpecStalls              87                       # The number of times commit has been forced to stall to communicate backwards (Count)
system.cpu.commit.branchMispredicts              2062                       # The number of times a branch was mispredicted (Count)
system.cpu.commit.numCommittedDist::samples    403724749                       # Number of insts commited each cycle
system.cpu.commit.numCommittedDist::mean     0.458609                       # Number of insts commited each cycle
system.cpu.commit.numCommittedDist::stdev     1.261984                       # Number of insts commited each cycle
system.cpu.commit.numCommittedDist::underflows            0      0.00%      0.00% # Number of insts commited each cycle
system.cpu.commit.numCommittedDist::0       348672412     86.36%     86.36% # Number of insts commited each cycle
system.cpu.commit.numCommittedDist::1        10880977      2.70%     89.06% # Number of insts commited each cycle
system.cpu.commit.numCommittedDist::2         1985543      0.49%     89.55% # Number of insts commited each cycle
system.cpu.commit.numCommittedDist::3         7837794      1.94%     91.49% # Number of insts commited each cycle
system.cpu.commit.numCommittedDist::4        26080253      6.46%     97.95% # Number of insts commited each cycle
system.cpu.commit.numCommittedDist::5         7871282      1.95%     99.90% # Number of insts commited each cycle
system.cpu.commit.numCommittedDist::6           11629      0.00%     99.90% # Number of insts commited each cycle
system.cpu.commit.numCommittedDist::7           39519      0.01%     99.91% # Number of insts commited each cycle
system.cpu.commit.numCommittedDist::8          345340      0.09%    100.00% # Number of insts commited each cycle
system.cpu.commit.numCommittedDist::overflows            0      0.00%    100.00% # Number of insts commited each cycle
system.cpu.commit.numCommittedDist::min_value            0                       # Number of insts commited each cycle
system.cpu.commit.numCommittedDist::max_value            8                       # Number of insts commited each cycle
system.cpu.commit.numCommittedDist::total    403724749                       # Number of insts commited each cycle
system.cpu.commit.instsCommitted            100000001                       # Number of instructions committed (Count)
system.cpu.commit.opsCommitted              185151994                       # Number of ops (including micro ops) committed (Count)
system.cpu.commit.memRefs                    87286940                       # Number of memory references committed (Count)
system.cpu.commit.loads                       1972953                       # Number of loads committed (Count)
system.cpu.commit.amos                              0                       # Number of atomic instructions committed (Count)
system.cpu.commit.membars                          34                       # Number of memory barriers committed (Count)
system.cpu.commit.branches                   10690638                       # Number of branches committed (Count)
system.cpu.commit.vectorInstructions                0                       # Number of committed Vector instructions. (Count)
system.cpu.commit.floating                          0                       # Number of committed floating point instructions. (Count)
system.cpu.commit.integer                   174467004                       # Number of committed integer instructions. (Count)
system.cpu.commit.functionCalls                  2665                       # Number of function calls committed. (Count)
system.cpu.commit.committedInstType_0::No_OpClass            0      0.00%      0.00% # Class of committed instruction (Count)
system.cpu.commit.committedInstType_0::IntAlu     97864975     52.86%     52.86% # Class of committed instruction (Count)
system.cpu.commit.committedInstType_0::IntMult           79      0.00%     52.86% # Class of committed instruction (Count)
system.cpu.commit.committedInstType_0::IntDiv            0      0.00%     52.86% # Class of committed instruction (Count)
system.cpu.commit.committedInstType_0::FloatAdd            0      0.00%     52.86% # Class of committed instruction (Count)
system.cpu.commit.committedInstType_0::FloatCmp            0      0.00%     52.86% # Class of committed instruction (Count)
system.cpu.commit.committedInstType_0::FloatCvt            0      0.00%     52.86% # Class of committed instruction (Count)
system.cpu.commit.committedInstType_0::FloatMult            0      0.00%     52.86% # Class of committed instruction (Count)
system.cpu.commit.committedInstType_0::FloatMultAcc            0      0.00%     52.86% # Class of committed instruction (Count)
system.cpu.commit.committedInstType_0::FloatDiv            0      0.00%     52.86% # Class of committed instruction (Count)
system.cpu.commit.committedInstType_0::FloatMisc            0      0.00%     52.86% # Class of committed instruction (Count)
system.cpu.commit.committedInstType_0::FloatSqrt            0      0.00%     52.86% # Class of committed instruction (Count)
system.cpu.commit.committedInstType_0::SimdAdd            0      0.00%     52.86% # Class of committed instruction (Count)
system.cpu.commit.committedInstType_0::SimdAddAcc            0      0.00%     52.86% # Class of committed instruction (Count)
system.cpu.commit.committedInstType_0::SimdAlu            0      0.00%     52.86% # Class of committed instruction (Count)
system.cpu.commit.committedInstType_0::SimdCmp            0      0.00%     52.86% # Class of committed instruction (Count)
system.cpu.commit.committedInstType_0::SimdCvt            0      0.00%     52.86% # Class of committed instruction (Count)
system.cpu.commit.committedInstType_0::SimdMisc            0      0.00%     52.86% # Class of committed instruction (Count)
system.cpu.commit.committedInstType_0::SimdMult            0      0.00%     52.86% # Class of committed instruction (Count)
system.cpu.commit.committedInstType_0::SimdMultAcc            0      0.00%     52.86% # Class of committed instruction (Count)
system.cpu.commit.committedInstType_0::SimdShift            0      0.00%     52.86% # Class of committed instruction (Count)
system.cpu.commit.committedInstType_0::SimdShiftAcc            0      0.00%     52.86% # Class of committed instruction (Count)
system.cpu.commit.committedInstType_0::SimdDiv            0      0.00%     52.86% # Class of committed instruction (Count)
system.cpu.commit.committedInstType_0::SimdSqrt            0      0.00%     52.86% # Class of committed instruction (Count)
system.cpu.commit.committedInstType_0::SimdFloatAdd            0      0.00%     52.86% # Class of committed instruction (Count)
system.cpu.commit.committedInstType_0::SimdFloatAlu            0      0.00%     52.86% # Class of committed instruction (Count)
system.cpu.commit.committedInstType_0::SimdFloatCmp            0      0.00%     52.86% # Class of committed instruction (Count)
system.cpu.commit.committedInstType_0::SimdFloatCvt            0      0.00%     52.86% # Class of committed instruction (Count)
system.cpu.commit.committedInstType_0::SimdFloatDiv            0      0.00%     52.86% # Class of committed instruction (Count)
system.cpu.commit.committedInstType_0::SimdFloatMisc            0      0.00%     52.86% # Class of committed instruction (Count)
system.cpu.commit.committedInstType_0::SimdFloatMult            0      0.00%     52.86% # Class of committed instruction (Count)
system.cpu.commit.committedInstType_0::SimdFloatMultAcc            0      0.00%     52.86% # Class of committed instruction (Count)
system.cpu.commit.committedInstType_0::SimdFloatSqrt            0      0.00%     52.86% # Class of committed instruction (Count)
system.cpu.commit.committedInstType_0::SimdReduceAdd            0      0.00%     52.86% # Class of committed instruction (Count)
system.cpu.commit.committedInstType_0::SimdReduceAlu            0      0.00%     52.86% # Class of committed instruction (Count)
system.cpu.commit.committedInstType_0::SimdReduceCmp            0      0.00%     52.86% # Class of committed instruction (Count)
system.cpu.commit.committedInstType_0::SimdFloatReduceAdd            0      0.00%     52.86% # Class of committed instruction (Count)
system.cpu.commit.committedInstType_0::SimdFloatReduceCmp            0      0.00%     52.86% # Class of committed instruction (Count)
system.cpu.commit.committedInstType_0::SimdAes            0      0.00%     52.86% # Class of committed instruction (Count)
system.cpu.commit.committedInstType_0::SimdAesMix            0      0.00%     52.86% # Class of committed instruction (Count)
system.cpu.commit.committedInstType_0::SimdSha1Hash            0      0.00%     52.86% # Class of committed instruction (Count)
system.cpu.commit.committedInstType_0::SimdSha1Hash2            0      0.00%     52.86% # Class of committed instruction (Count)
system.cpu.commit.committedInstType_0::SimdSha256Hash            0      0.00%     52.86% # Class of committed instruction (Count)
system.cpu.commit.committedInstType_0::SimdSha256Hash2            0      0.00%     52.86% # Class of committed instruction (Count)
system.cpu.commit.committedInstType_0::SimdShaSigma2            0      0.00%     52.86% # Class of committed instruction (Count)
system.cpu.commit.committedInstType_0::SimdShaSigma3            0      0.00%     52.86% # Class of committed instruction (Count)
system.cpu.commit.committedInstType_0::SimdPredAlu            0      0.00%     52.86% # Class of committed instruction (Count)
system.cpu.commit.committedInstType_0::MemRead      1972953      1.07%     53.92% # Class of committed instruction (Count)
system.cpu.commit.committedInstType_0::MemWrite     85313987     46.08%    100.00% # Class of committed instruction (Count)
system.cpu.commit.committedInstType_0::FloatMemRead            0      0.00%    100.00% # Class of committed instruction (Count)
system.cpu.commit.committedInstType_0::FloatMemWrite            0      0.00%    100.00% # Class of committed instruction (Count)
system.cpu.commit.committedInstType_0::IprAccess            0      0.00%    100.00% # Class of committed instruction (Count)
system.cpu.commit.committedInstType_0::InstPrefetch            0      0.00%    100.00% # Class of committed instruction (Count)
system.cpu.commit.committedInstType_0::total    185151994                       # Class of committed instruction (Count)
system.cpu.commit.commitEligibleSamples        345340                       # number cycles where commit BW limit reached (Cycle)
system.cpu.dcache.demandHits::cpu.data        2983986                       # number of demand (read+write) hits (Count)
system.cpu.dcache.demandHits::total           2983986                       # number of demand (read+write) hits (Count)
system.cpu.dcache.overallHits::cpu.data       2983986                       # number of overall hits (Count)
system.cpu.dcache.overallHits::total          2983986                       # number of overall hits (Count)
system.cpu.dcache.demandMisses::cpu.data     84132291                       # number of demand (read+write) misses (Count)
system.cpu.dcache.demandMisses::total        84132291                       # number of demand (read+write) misses (Count)
system.cpu.dcache.overallMisses::cpu.data     84132291                       # number of overall misses (Count)
system.cpu.dcache.overallMisses::total       84132291                       # number of overall misses (Count)
system.cpu.dcache.demandMissLatency::cpu.data 5998557671924                       # number of demand (read+write) miss ticks (Tick)
system.cpu.dcache.demandMissLatency::total 5998557671924                       # number of demand (read+write) miss ticks (Tick)
system.cpu.dcache.overallMissLatency::cpu.data 5998557671924                       # number of overall miss ticks (Tick)
system.cpu.dcache.overallMissLatency::total 5998557671924                       # number of overall miss ticks (Tick)
system.cpu.dcache.demandAccesses::cpu.data     87116277                       # number of demand (read+write) accesses (Count)
system.cpu.dcache.demandAccesses::total      87116277                       # number of demand (read+write) accesses (Count)
system.cpu.dcache.overallAccesses::cpu.data     87116277                       # number of overall (read+write) accesses (Count)
system.cpu.dcache.overallAccesses::total     87116277                       # number of overall (read+write) accesses (Count)
system.cpu.dcache.demandMissRate::cpu.data     0.965747                       # miss rate for demand accesses (Ratio)
system.cpu.dcache.demandMissRate::total      0.965747                       # miss rate for demand accesses (Ratio)
system.cpu.dcache.overallMissRate::cpu.data     0.965747                       # miss rate for overall accesses (Ratio)
system.cpu.dcache.overallMissRate::total     0.965747                       # miss rate for overall accesses (Ratio)
system.cpu.dcache.demandAvgMissLatency::cpu.data 71299.112393                       # average overall miss latency ((Cycle/Count))
system.cpu.dcache.demandAvgMissLatency::total 71299.112393                       # average overall miss latency ((Cycle/Count))
system.cpu.dcache.overallAvgMissLatency::cpu.data 71299.112393                       # average overall miss latency ((Cycle/Count))
system.cpu.dcache.overallAvgMissLatency::total 71299.112393                       # average overall miss latency ((Cycle/Count))
system.cpu.dcache.blockedCycles::no_mshrs        18796                       # number of cycles access was blocked (Cycle)
system.cpu.dcache.blockedCycles::no_targets          360                       # number of cycles access was blocked (Cycle)
system.cpu.dcache.blockedCauses::no_mshrs          298                       # number of times access was blocked (Count)
system.cpu.dcache.blockedCauses::no_targets            1                       # number of times access was blocked (Count)
system.cpu.dcache.avgBlocked::no_mshrs      63.073826                       # average number of cycles each access was blocked ((Cycle/Count))
system.cpu.dcache.avgBlocked::no_targets          360                       # average number of cycles each access was blocked ((Cycle/Count))
system.cpu.dcache.writebacks::writebacks      5328228                       # number of writebacks (Count)
system.cpu.dcache.writebacks::total           5328228                       # number of writebacks (Count)
system.cpu.dcache.demandMshrHits::cpu.data     78799702                       # number of demand (read+write) MSHR hits (Count)
system.cpu.dcache.demandMshrHits::total      78799702                       # number of demand (read+write) MSHR hits (Count)
system.cpu.dcache.overallMshrHits::cpu.data     78799702                       # number of overall MSHR hits (Count)
system.cpu.dcache.overallMshrHits::total     78799702                       # number of overall MSHR hits (Count)
system.cpu.dcache.demandMshrMisses::cpu.data      5332589                       # number of demand (read+write) MSHR misses (Count)
system.cpu.dcache.demandMshrMisses::total      5332589                       # number of demand (read+write) MSHR misses (Count)
system.cpu.dcache.overallMshrMisses::cpu.data      5332589                       # number of overall MSHR misses (Count)
system.cpu.dcache.overallMshrMisses::total      5332589                       # number of overall MSHR misses (Count)
system.cpu.dcache.demandMshrMissLatency::cpu.data 536097602469                       # number of demand (read+write) MSHR miss ticks (Tick)
system.cpu.dcache.demandMshrMissLatency::total 536097602469                       # number of demand (read+write) MSHR miss ticks (Tick)
system.cpu.dcache.overallMshrMissLatency::cpu.data 536097602469                       # number of overall MSHR miss ticks (Tick)
system.cpu.dcache.overallMshrMissLatency::total 536097602469                       # number of overall MSHR miss ticks (Tick)
system.cpu.dcache.demandMshrMissRate::cpu.data     0.061212                       # mshr miss ratio for demand accesses (Ratio)
system.cpu.dcache.demandMshrMissRate::total     0.061212                       # mshr miss ratio for demand accesses (Ratio)
system.cpu.dcache.overallMshrMissRate::cpu.data     0.061212                       # mshr miss ratio for overall accesses (Ratio)
system.cpu.dcache.overallMshrMissRate::total     0.061212                       # mshr miss ratio for overall accesses (Ratio)
system.cpu.dcache.demandAvgMshrMissLatency::cpu.data 100532.331006                       # average overall mshr miss latency ((Cycle/Count))
system.cpu.dcache.demandAvgMshrMissLatency::total 100532.331006                       # average overall mshr miss latency ((Cycle/Count))
system.cpu.dcache.overallAvgMshrMissLatency::cpu.data 100532.331006                       # average overall mshr miss latency ((Cycle/Count))
system.cpu.dcache.overallAvgMshrMissLatency::total 100532.331006                       # average overall mshr miss latency ((Cycle/Count))
system.cpu.dcache.replacements                5332523                       # number of replacements (Count)
system.cpu.dcache.LoadLockedReq.hits::cpu.data           36                       # number of LoadLockedReq hits (Count)
system.cpu.dcache.LoadLockedReq.hits::total           36                       # number of LoadLockedReq hits (Count)
system.cpu.dcache.LoadLockedReq.misses::cpu.data            2                       # number of LoadLockedReq misses (Count)
system.cpu.dcache.LoadLockedReq.misses::total            2                       # number of LoadLockedReq misses (Count)
system.cpu.dcache.LoadLockedReq.missLatency::cpu.data        24500                       # number of LoadLockedReq miss ticks (Tick)
system.cpu.dcache.LoadLockedReq.missLatency::total        24500                       # number of LoadLockedReq miss ticks (Tick)
system.cpu.dcache.LoadLockedReq.accesses::cpu.data           38                       # number of LoadLockedReq accesses(hits+misses) (Count)
system.cpu.dcache.LoadLockedReq.accesses::total           38                       # number of LoadLockedReq accesses(hits+misses) (Count)
system.cpu.dcache.LoadLockedReq.missRate::cpu.data     0.052632                       # miss rate for LoadLockedReq accesses (Ratio)
system.cpu.dcache.LoadLockedReq.missRate::total     0.052632                       # miss rate for LoadLockedReq accesses (Ratio)
system.cpu.dcache.LoadLockedReq.avgMissLatency::cpu.data        12250                       # average LoadLockedReq miss latency ((Tick/Count))
system.cpu.dcache.LoadLockedReq.avgMissLatency::total        12250                       # average LoadLockedReq miss latency ((Tick/Count))
system.cpu.dcache.LoadLockedReq.mshrHits::cpu.data            2                       # number of LoadLockedReq MSHR hits (Count)
system.cpu.dcache.LoadLockedReq.mshrHits::total            2                       # number of LoadLockedReq MSHR hits (Count)
system.cpu.dcache.ReadReq.hits::cpu.data      1789307                       # number of ReadReq hits (Count)
system.cpu.dcache.ReadReq.hits::total         1789307                       # number of ReadReq hits (Count)
system.cpu.dcache.ReadReq.misses::cpu.data        13450                       # number of ReadReq misses (Count)
system.cpu.dcache.ReadReq.misses::total         13450                       # number of ReadReq misses (Count)
system.cpu.dcache.ReadReq.missLatency::cpu.data    238920500                       # number of ReadReq miss ticks (Tick)
system.cpu.dcache.ReadReq.missLatency::total    238920500                       # number of ReadReq miss ticks (Tick)
system.cpu.dcache.ReadReq.accesses::cpu.data      1802757                       # number of ReadReq accesses(hits+misses) (Count)
system.cpu.dcache.ReadReq.accesses::total      1802757                       # number of ReadReq accesses(hits+misses) (Count)
system.cpu.dcache.ReadReq.missRate::cpu.data     0.007461                       # miss rate for ReadReq accesses (Ratio)
system.cpu.dcache.ReadReq.missRate::total     0.007461                       # miss rate for ReadReq accesses (Ratio)
system.cpu.dcache.ReadReq.avgMissLatency::cpu.data 17763.605948                       # average ReadReq miss latency ((Tick/Count))
system.cpu.dcache.ReadReq.avgMissLatency::total 17763.605948                       # average ReadReq miss latency ((Tick/Count))
system.cpu.dcache.ReadReq.mshrHits::cpu.data         8508                       # number of ReadReq MSHR hits (Count)
system.cpu.dcache.ReadReq.mshrHits::total         8508                       # number of ReadReq MSHR hits (Count)
system.cpu.dcache.ReadReq.mshrMisses::cpu.data         4942                       # number of ReadReq MSHR misses (Count)
system.cpu.dcache.ReadReq.mshrMisses::total         4942                       # number of ReadReq MSHR misses (Count)
system.cpu.dcache.ReadReq.mshrMissLatency::cpu.data     92090000                       # number of ReadReq MSHR miss ticks (Tick)
system.cpu.dcache.ReadReq.mshrMissLatency::total     92090000                       # number of ReadReq MSHR miss ticks (Tick)
system.cpu.dcache.ReadReq.mshrMissRate::cpu.data     0.002741                       # mshr miss rate for ReadReq accesses (Ratio)
system.cpu.dcache.ReadReq.mshrMissRate::total     0.002741                       # mshr miss rate for ReadReq accesses (Ratio)
system.cpu.dcache.ReadReq.avgMshrMissLatency::cpu.data 18634.156212                       # average ReadReq mshr miss latency ((Tick/Count))
system.cpu.dcache.ReadReq.avgMshrMissLatency::total 18634.156212                       # average ReadReq mshr miss latency ((Tick/Count))
system.cpu.dcache.StoreCondReq.hits::cpu.data           34                       # number of StoreCondReq hits (Count)
system.cpu.dcache.StoreCondReq.hits::total           34                       # number of StoreCondReq hits (Count)
system.cpu.dcache.StoreCondReq.accesses::cpu.data           34                       # number of StoreCondReq accesses(hits+misses) (Count)
system.cpu.dcache.StoreCondReq.accesses::total           34                       # number of StoreCondReq accesses(hits+misses) (Count)
system.cpu.dcache.WriteReq.hits::cpu.data      1194679                       # number of WriteReq hits (Count)
system.cpu.dcache.WriteReq.hits::total        1194679                       # number of WriteReq hits (Count)
system.cpu.dcache.WriteReq.misses::cpu.data     84118841                       # number of WriteReq misses (Count)
system.cpu.dcache.WriteReq.misses::total     84118841                       # number of WriteReq misses (Count)
system.cpu.dcache.WriteReq.missLatency::cpu.data 5998318751424                       # number of WriteReq miss ticks (Tick)
system.cpu.dcache.WriteReq.missLatency::total 5998318751424                       # number of WriteReq miss ticks (Tick)
system.cpu.dcache.WriteReq.accesses::cpu.data     85313520                       # number of WriteReq accesses(hits+misses) (Count)
system.cpu.dcache.WriteReq.accesses::total     85313520                       # number of WriteReq accesses(hits+misses) (Count)
system.cpu.dcache.WriteReq.missRate::cpu.data     0.985997                       # miss rate for WriteReq accesses (Ratio)
system.cpu.dcache.WriteReq.missRate::total     0.985997                       # miss rate for WriteReq accesses (Ratio)
system.cpu.dcache.WriteReq.avgMissLatency::cpu.data 71307.672337                       # average WriteReq miss latency ((Tick/Count))
system.cpu.dcache.WriteReq.avgMissLatency::total 71307.672337                       # average WriteReq miss latency ((Tick/Count))
system.cpu.dcache.WriteReq.mshrHits::cpu.data     78791194                       # number of WriteReq MSHR hits (Count)
system.cpu.dcache.WriteReq.mshrHits::total     78791194                       # number of WriteReq MSHR hits (Count)
system.cpu.dcache.WriteReq.mshrMisses::cpu.data      5327647                       # number of WriteReq MSHR misses (Count)
system.cpu.dcache.WriteReq.mshrMisses::total      5327647                       # number of WriteReq MSHR misses (Count)
system.cpu.dcache.WriteReq.mshrMissLatency::cpu.data 536005512469                       # number of WriteReq MSHR miss ticks (Tick)
system.cpu.dcache.WriteReq.mshrMissLatency::total 536005512469                       # number of WriteReq MSHR miss ticks (Tick)
system.cpu.dcache.WriteReq.mshrMissRate::cpu.data     0.062448                       # mshr miss rate for WriteReq accesses (Ratio)
system.cpu.dcache.WriteReq.mshrMissRate::total     0.062448                       # mshr miss rate for WriteReq accesses (Ratio)
system.cpu.dcache.WriteReq.avgMshrMissLatency::cpu.data 100608.300901                       # average WriteReq mshr miss latency ((Tick/Count))
system.cpu.dcache.WriteReq.avgMshrMissLatency::total 100608.300901                       # average WriteReq mshr miss latency ((Tick/Count))
system.cpu.dcache.power_state.pwrStateResidencyTicks::UNDEFINED 202008512500                       # Cumulative time (in ticks) in various power states (Tick)
system.cpu.dcache.tags.tagsInUse            63.998810                       # Average ticks per tags in use ((Tick/Count))
system.cpu.dcache.tags.totalRefs              8316643                       # Total number of references to valid blocks. (Count)
system.cpu.dcache.tags.sampledRefs            5332587                       # Sample count of references to valid blocks. (Count)
system.cpu.dcache.tags.avgRefs               1.559589                       # Average number of references to valid blocks. ((Count/Count))
system.cpu.dcache.tags.warmupTick              161000                       # The tick when the warmup percentage was hit. (Tick)
system.cpu.dcache.tags.occupancies::cpu.data    63.998810                       # Average occupied blocks per tick, per requestor ((Count/Tick))
system.cpu.dcache.tags.avgOccs::cpu.data     0.999981                       # Average percentage of cache occupancy ((Ratio/Tick))
system.cpu.dcache.tags.avgOccs::total        0.999981                       # Average percentage of cache occupancy ((Ratio/Tick))
system.cpu.dcache.tags.occupanciesTaskId::1024           64                       # Occupied blocks per task id (Count)
system.cpu.dcache.tags.ageTaskId_1024::0           64                       # Occupied blocks per task id, per block age (Count)
system.cpu.dcache.tags.ratioOccsTaskId::1024            1                       # Ratio of occupied blocks and all blocks, per task id (Ratio)
system.cpu.dcache.tags.tagAccesses          179565285                       # Number of tag accesses (Count)
system.cpu.dcache.tags.dataAccesses         179565285                       # Number of data accesses (Count)
system.cpu.dcache.tags.power_state.pwrStateResidencyTicks::UNDEFINED 202008512500                       # Cumulative time (in ticks) in various power states (Tick)
system.cpu.decode.idleCycles                  5544663                       # Number of cycles decode is idle (Cycle)
system.cpu.decode.blockedCycles             374715798                       # Number of cycles decode is blocked (Cycle)
system.cpu.decode.runCycles                  12698618                       # Number of cycles decode is running (Cycle)
system.cpu.decode.unblockCycles              10947495                       # Number of cycles decode is unblocking (Cycle)
system.cpu.decode.squashCycles                  46189                       # Number of cycles decode is squashing (Cycle)
system.cpu.decode.branchResolved             10905224                       # Number of times decode resolved a branch (Count)
system.cpu.decode.branchMispred                   404                       # Number of times decode detected a branch misprediction (Count)
system.cpu.decode.decodedInsts              188915498                       # Number of instructions handled by decode (Count)
system.cpu.decode.squashedInsts                  1710                       # Number of squashed instructions handled by decode (Count)
system.cpu.fetch.icacheStallCycles             331677                       # Number of cycles fetch is stalled on an Icache miss (Cycle)
system.cpu.fetch.insts                      103160533                       # Number of instructions fetch has processed (Count)
system.cpu.fetch.branches                    11051751                       # Number of branches that fetch encountered (Count)
system.cpu.fetch.predictedBranches           11041135                       # Number of branches that fetch has predicted taken (Count)
system.cpu.fetch.cycles                     403574265                       # Number of cycles fetch has run and was not squashing or blocked (Cycle)
system.cpu.fetch.squashCycles                   93166                       # Number of cycles fetch has spent squashing (Cycle)
system.cpu.fetch.miscStallCycles                   97                       # Number of cycles fetch has spent waiting on interrupts, or bad addresses, or out of MSHRs (Cycle)
system.cpu.fetch.pendingTrapStallCycles            66                       # Number of stall cycles due to pending traps (Cycle)
system.cpu.fetch.icacheWaitRetryStallCycles           75                       # Number of stall cycles due to full MSHR (Cycle)
system.cpu.fetch.cacheLines                    304872                       # Number of cache lines fetched (Count)
system.cpu.fetch.icacheSquashes                  1493                       # Number of outstanding Icache misses that were squashed (Count)
system.cpu.fetch.nisnDist::samples          403952763                       # Number of instructions fetched each cycle (Total)
system.cpu.fetch.nisnDist::mean              0.472943                       # Number of instructions fetched each cycle (Total)
system.cpu.fetch.nisnDist::stdev             1.781743                       # Number of instructions fetched each cycle (Total)
system.cpu.fetch.nisnDist::underflows               0      0.00%      0.00% # Number of instructions fetched each cycle (Total)
system.cpu.fetch.nisnDist::0                370323266     91.67%     91.67% # Number of instructions fetched each cycle (Total)
system.cpu.fetch.nisnDist::1                  6990150      1.73%     93.41% # Number of instructions fetched each cycle (Total)
system.cpu.fetch.nisnDist::2                  1354015      0.34%     93.74% # Number of instructions fetched each cycle (Total)
system.cpu.fetch.nisnDist::3                  1411419      0.35%     94.09% # Number of instructions fetched each cycle (Total)
system.cpu.fetch.nisnDist::4                  1400052      0.35%     94.44% # Number of instructions fetched each cycle (Total)
system.cpu.fetch.nisnDist::5                  1380816      0.34%     94.78% # Number of instructions fetched each cycle (Total)
system.cpu.fetch.nisnDist::6                  1389938      0.34%     95.12% # Number of instructions fetched each cycle (Total)
system.cpu.fetch.nisnDist::7                  1354711      0.34%     95.46% # Number of instructions fetched each cycle (Total)
system.cpu.fetch.nisnDist::8                 18348396      4.54%    100.00% # Number of instructions fetched each cycle (Total)
system.cpu.fetch.nisnDist::overflows                0      0.00%    100.00% # Number of instructions fetched each cycle (Total)
system.cpu.fetch.nisnDist::min_value                0                       # Number of instructions fetched each cycle (Total)
system.cpu.fetch.nisnDist::max_value                8                       # Number of instructions fetched each cycle (Total)
system.cpu.fetch.nisnDist::total            403952763                       # Number of instructions fetched each cycle (Total)
system.cpu.fetch.branchRate                  0.027355                       # Number of branch fetches per cycle (Ratio)
system.cpu.fetch.rate                        0.255337                       # Number of inst fetches per cycle ((Count/Cycle))
system.cpu.icache.demandHits::cpu.inst         303006                       # number of demand (read+write) hits (Count)
system.cpu.icache.demandHits::total            303006                       # number of demand (read+write) hits (Count)
system.cpu.icache.overallHits::cpu.inst        303006                       # number of overall hits (Count)
system.cpu.icache.overallHits::total           303006                       # number of overall hits (Count)
system.cpu.icache.demandMisses::cpu.inst         1865                       # number of demand (read+write) misses (Count)
system.cpu.icache.demandMisses::total            1865                       # number of demand (read+write) misses (Count)
system.cpu.icache.overallMisses::cpu.inst         1865                       # number of overall misses (Count)
system.cpu.icache.overallMisses::total           1865                       # number of overall misses (Count)
system.cpu.icache.demandMissLatency::cpu.inst     98767996                       # number of demand (read+write) miss ticks (Tick)
system.cpu.icache.demandMissLatency::total     98767996                       # number of demand (read+write) miss ticks (Tick)
system.cpu.icache.overallMissLatency::cpu.inst     98767996                       # number of overall miss ticks (Tick)
system.cpu.icache.overallMissLatency::total     98767996                       # number of overall miss ticks (Tick)
system.cpu.icache.demandAccesses::cpu.inst       304871                       # number of demand (read+write) accesses (Count)
system.cpu.icache.demandAccesses::total        304871                       # number of demand (read+write) accesses (Count)
system.cpu.icache.overallAccesses::cpu.inst       304871                       # number of overall (read+write) accesses (Count)
system.cpu.icache.overallAccesses::total       304871                       # number of overall (read+write) accesses (Count)
system.cpu.icache.demandMissRate::cpu.inst     0.006117                       # miss rate for demand accesses (Ratio)
system.cpu.icache.demandMissRate::total      0.006117                       # miss rate for demand accesses (Ratio)
system.cpu.icache.overallMissRate::cpu.inst     0.006117                       # miss rate for overall accesses (Ratio)
system.cpu.icache.overallMissRate::total     0.006117                       # miss rate for overall accesses (Ratio)
system.cpu.icache.demandAvgMissLatency::cpu.inst 52958.710992                       # average overall miss latency ((Cycle/Count))
system.cpu.icache.demandAvgMissLatency::total 52958.710992                       # average overall miss latency ((Cycle/Count))
system.cpu.icache.overallAvgMissLatency::cpu.inst 52958.710992                       # average overall miss latency ((Cycle/Count))
system.cpu.icache.overallAvgMissLatency::total 52958.710992                       # average overall miss latency ((Cycle/Count))
system.cpu.icache.blockedCycles::no_mshrs         1202                       # number of cycles access was blocked (Cycle)
system.cpu.icache.blockedCycles::no_targets           97                       # number of cycles access was blocked (Cycle)
system.cpu.icache.blockedCauses::no_mshrs           33                       # number of times access was blocked (Count)
system.cpu.icache.blockedCauses::no_targets            1                       # number of times access was blocked (Count)
system.cpu.icache.avgBlocked::no_mshrs      36.424242                       # average number of cycles each access was blocked ((Cycle/Count))
system.cpu.icache.avgBlocked::no_targets           97                       # average number of cycles each access was blocked ((Cycle/Count))
system.cpu.icache.writebacks::writebacks         1360                       # number of writebacks (Count)
system.cpu.icache.writebacks::total              1360                       # number of writebacks (Count)
system.cpu.icache.demandMshrHits::cpu.inst          441                       # number of demand (read+write) MSHR hits (Count)
system.cpu.icache.demandMshrHits::total           441                       # number of demand (read+write) MSHR hits (Count)
system.cpu.icache.overallMshrHits::cpu.inst          441                       # number of overall MSHR hits (Count)
system.cpu.icache.overallMshrHits::total          441                       # number of overall MSHR hits (Count)
system.cpu.icache.demandMshrMisses::cpu.inst         1424                       # number of demand (read+write) MSHR misses (Count)
system.cpu.icache.demandMshrMisses::total         1424                       # number of demand (read+write) MSHR misses (Count)
system.cpu.icache.overallMshrMisses::cpu.inst         1424                       # number of overall MSHR misses (Count)
system.cpu.icache.overallMshrMisses::total         1424                       # number of overall MSHR misses (Count)
system.cpu.icache.demandMshrMissLatency::cpu.inst     72794497                       # number of demand (read+write) MSHR miss ticks (Tick)
system.cpu.icache.demandMshrMissLatency::total     72794497                       # number of demand (read+write) MSHR miss ticks (Tick)
system.cpu.icache.overallMshrMissLatency::cpu.inst     72794497                       # number of overall MSHR miss ticks (Tick)
system.cpu.icache.overallMshrMissLatency::total     72794497                       # number of overall MSHR miss ticks (Tick)
system.cpu.icache.demandMshrMissRate::cpu.inst     0.004671                       # mshr miss ratio for demand accesses (Ratio)
system.cpu.icache.demandMshrMissRate::total     0.004671                       # mshr miss ratio for demand accesses (Ratio)
system.cpu.icache.overallMshrMissRate::cpu.inst     0.004671                       # mshr miss ratio for overall accesses (Ratio)
system.cpu.icache.overallMshrMissRate::total     0.004671                       # mshr miss ratio for overall accesses (Ratio)
system.cpu.icache.demandAvgMshrMissLatency::cpu.inst 51119.731039                       # average overall mshr miss latency ((Cycle/Count))
system.cpu.icache.demandAvgMshrMissLatency::total 51119.731039                       # average overall mshr miss latency ((Cycle/Count))
system.cpu.icache.overallAvgMshrMissLatency::cpu.inst 51119.731039                       # average overall mshr miss latency ((Cycle/Count))
system.cpu.icache.overallAvgMshrMissLatency::total 51119.731039                       # average overall mshr miss latency ((Cycle/Count))
system.cpu.icache.replacements                   1360                       # number of replacements (Count)
system.cpu.icache.ReadReq.hits::cpu.inst       303006                       # number of ReadReq hits (Count)
system.cpu.icache.ReadReq.hits::total          303006                       # number of ReadReq hits (Count)
system.cpu.icache.ReadReq.misses::cpu.inst         1865                       # number of ReadReq misses (Count)
system.cpu.icache.ReadReq.misses::total          1865                       # number of ReadReq misses (Count)
system.cpu.icache.ReadReq.missLatency::cpu.inst     98767996                       # number of ReadReq miss ticks (Tick)
system.cpu.icache.ReadReq.missLatency::total     98767996                       # number of ReadReq miss ticks (Tick)
system.cpu.icache.ReadReq.accesses::cpu.inst       304871                       # number of ReadReq accesses(hits+misses) (Count)
system.cpu.icache.ReadReq.accesses::total       304871                       # number of ReadReq accesses(hits+misses) (Count)
system.cpu.icache.ReadReq.missRate::cpu.inst     0.006117                       # miss rate for ReadReq accesses (Ratio)
system.cpu.icache.ReadReq.missRate::total     0.006117                       # miss rate for ReadReq accesses (Ratio)
system.cpu.icache.ReadReq.avgMissLatency::cpu.inst 52958.710992                       # average ReadReq miss latency ((Tick/Count))
system.cpu.icache.ReadReq.avgMissLatency::total 52958.710992                       # average ReadReq miss latency ((Tick/Count))
system.cpu.icache.ReadReq.mshrHits::cpu.inst          441                       # number of ReadReq MSHR hits (Count)
system.cpu.icache.ReadReq.mshrHits::total          441                       # number of ReadReq MSHR hits (Count)
system.cpu.icache.ReadReq.mshrMisses::cpu.inst         1424                       # number of ReadReq MSHR misses (Count)
system.cpu.icache.ReadReq.mshrMisses::total         1424                       # number of ReadReq MSHR misses (Count)
system.cpu.icache.ReadReq.mshrMissLatency::cpu.inst     72794497                       # number of ReadReq MSHR miss ticks (Tick)
system.cpu.icache.ReadReq.mshrMissLatency::total     72794497                       # number of ReadReq MSHR miss ticks (Tick)
system.cpu.icache.ReadReq.mshrMissRate::cpu.inst     0.004671                       # mshr miss rate for ReadReq accesses (Ratio)
system.cpu.icache.ReadReq.mshrMissRate::total     0.004671                       # mshr miss rate for ReadReq accesses (Ratio)
system.cpu.icache.ReadReq.avgMshrMissLatency::cpu.inst 51119.731039                       # average ReadReq mshr miss latency ((Tick/Count))
system.cpu.icache.ReadReq.avgMshrMissLatency::total 51119.731039                       # average ReadReq mshr miss latency ((Tick/Count))
system.cpu.icache.power_state.pwrStateResidencyTicks::UNDEFINED 202008512500                       # Cumulative time (in ticks) in various power states (Tick)
system.cpu.icache.tags.tagsInUse            63.999144                       # Average ticks per tags in use ((Tick/Count))
system.cpu.icache.tags.totalRefs               304430                       # Total number of references to valid blocks. (Count)
system.cpu.icache.tags.sampledRefs               1424                       # Sample count of references to valid blocks. (Count)
system.cpu.icache.tags.avgRefs             213.785112                       # Average number of references to valid blocks. ((Count/Count))
system.cpu.icache.tags.warmupTick               87500                       # The tick when the warmup percentage was hit. (Tick)
system.cpu.icache.tags.occupancies::cpu.inst    63.999144                       # Average occupied blocks per tick, per requestor ((Count/Tick))
system.cpu.icache.tags.avgOccs::cpu.inst     0.999987                       # Average percentage of cache occupancy ((Ratio/Tick))
system.cpu.icache.tags.avgOccs::total        0.999987                       # Average percentage of cache occupancy ((Ratio/Tick))
system.cpu.icache.tags.occupanciesTaskId::1024           64                       # Occupied blocks per task id (Count)
system.cpu.icache.tags.ageTaskId_1024::4           64                       # Occupied blocks per task id, per block age (Count)
system.cpu.icache.tags.ratioOccsTaskId::1024            1                       # Ratio of occupied blocks and all blocks, per task id (Ratio)
system.cpu.icache.tags.tagAccesses             611166                       # Number of tag accesses (Count)
system.cpu.icache.tags.dataAccesses            611166                       # Number of data accesses (Count)
system.cpu.icache.tags.power_state.pwrStateResidencyTicks::UNDEFINED 202008512500                       # Cumulative time (in ticks) in various power states (Tick)
system.cpu.lsq0.forwLoads                      181371                       # Number of loads that had data forwarded from stores (Count)
system.cpu.lsq0.squashedLoads                   17368                       # Number of loads squashed (Count)
system.cpu.lsq0.ignoredResponses                   51                       # Number of memory responses ignored because the instruction is squashed (Count)
system.cpu.lsq0.memOrderViolation                 186                       # Number of memory ordering violations (Count)
system.cpu.lsq0.squashedStores                1457098                       # Number of stores squashed (Count)
system.cpu.lsq0.rescheduledLoads                  142                       # Number of loads that were rescheduled (Count)
system.cpu.lsq0.blockedByCache                    283                       # Number of times an access to memory failed due to the cache being blocked (Count)
system.cpu.lsq0.loadToUse::samples            1972953                       # Distribution of cycle latency between the first time a load is issued and its completion
system.cpu.lsq0.loadToUse::mean              3.691358                       # Distribution of cycle latency between the first time a load is issued and its completion
system.cpu.lsq0.loadToUse::stdev             6.279940                       # Distribution of cycle latency between the first time a load is issued and its completion
system.cpu.lsq0.loadToUse::0-9                1957582     99.22%     99.22% # Distribution of cycle latency between the first time a load is issued and its completion
system.cpu.lsq0.loadToUse::10-19                 1571      0.08%     99.30% # Distribution of cycle latency between the first time a load is issued and its completion
system.cpu.lsq0.loadToUse::20-29                 9692      0.49%     99.79% # Distribution of cycle latency between the first time a load is issued and its completion
system.cpu.lsq0.loadToUse::30-39                  331      0.02%     99.81% # Distribution of cycle latency between the first time a load is issued and its completion
system.cpu.lsq0.loadToUse::40-49                  106      0.01%     99.81% # Distribution of cycle latency between the first time a load is issued and its completion
system.cpu.lsq0.loadToUse::50-59                  583      0.03%     99.84% # Distribution of cycle latency between the first time a load is issued and its completion
system.cpu.lsq0.loadToUse::60-69                 1401      0.07%     99.91% # Distribution of cycle latency between the first time a load is issued and its completion
system.cpu.lsq0.loadToUse::70-79                   22      0.00%     99.92% # Distribution of cycle latency between the first time a load is issued and its completion
system.cpu.lsq0.loadToUse::80-89                   51      0.00%     99.92% # Distribution of cycle latency between the first time a load is issued and its completion
system.cpu.lsq0.loadToUse::90-99                   21      0.00%     99.92% # Distribution of cycle latency between the first time a load is issued and its completion
system.cpu.lsq0.loadToUse::100-109                 36      0.00%     99.92% # Distribution of cycle latency between the first time a load is issued and its completion
system.cpu.lsq0.loadToUse::110-119                292      0.01%     99.94% # Distribution of cycle latency between the first time a load is issued and its completion
system.cpu.lsq0.loadToUse::120-129                492      0.02%     99.96% # Distribution of cycle latency between the first time a load is issued and its completion
system.cpu.lsq0.loadToUse::130-139                107      0.01%     99.97% # Distribution of cycle latency between the first time a load is issued and its completion
system.cpu.lsq0.loadToUse::140-149                147      0.01%     99.97% # Distribution of cycle latency between the first time a load is issued and its completion
system.cpu.lsq0.loadToUse::150-159                111      0.01%     99.98% # Distribution of cycle latency between the first time a load is issued and its completion
system.cpu.lsq0.loadToUse::160-169                 22      0.00%     99.98% # Distribution of cycle latency between the first time a load is issued and its completion
system.cpu.lsq0.loadToUse::170-179                 55      0.00%     99.98% # Distribution of cycle latency between the first time a load is issued and its completion
system.cpu.lsq0.loadToUse::180-189                 25      0.00%     99.98% # Distribution of cycle latency between the first time a load is issued and its completion
system.cpu.lsq0.loadToUse::190-199                 28      0.00%     99.99% # Distribution of cycle latency between the first time a load is issued and its completion
system.cpu.lsq0.loadToUse::200-209                 64      0.00%     99.99% # Distribution of cycle latency between the first time a load is issued and its completion
system.cpu.lsq0.loadToUse::210-219                 19      0.00%     99.99% # Distribution of cycle latency between the first time a load is issued and its completion
system.cpu.lsq0.loadToUse::220-229                  2      0.00%     99.99% # Distribution of cycle latency between the first time a load is issued and its completion
system.cpu.lsq0.loadToUse::230-239                  2      0.00%     99.99% # Distribution of cycle latency between the first time a load is issued and its completion
system.cpu.lsq0.loadToUse::240-249                  4      0.00%     99.99% # Distribution of cycle latency between the first time a load is issued and its completion
system.cpu.lsq0.loadToUse::250-259                  7      0.00%     99.99% # Distribution of cycle latency between the first time a load is issued and its completion
system.cpu.lsq0.loadToUse::260-269                  1      0.00%     99.99% # Distribution of cycle latency between the first time a load is issued and its completion
[...]
system.mem_ctrls.dram.perBankWrBursts::7       330690                       # Per bank write bursts (Count)
system.mem_ctrls.dram.perBankWrBursts::8       330841                       # Per bank write bursts (Count)
system.mem_ctrls.dram.perBankWrBursts::9       330762                       # Per bank write bursts (Count)
system.mem_ctrls.dram.perBankWrBursts::10       330808                       # Per bank write bursts (Count)
system.mem_ctrls.dram.perBankWrBursts::11       330822                       # Per bank write bursts (Count)
system.mem_ctrls.dram.perBankWrBursts::12       330827                       # Per bank write bursts (Count)
system.mem_ctrls.dram.perBankWrBursts::13       330703                       # Per bank write bursts (Count)
system.mem_ctrls.dram.perBankWrBursts::14       330624                       # Per bank write bursts (Count)
system.mem_ctrls.dram.perBankWrBursts::15       330624                       # Per bank write bursts (Count)
system.mem_ctrls.dram.totQLat            155319055250                       # Total ticks spent queuing (Tick)
system.mem_ctrls.dram.totBusLat           26625300000                       # Total ticks spent in databus transfers (Tick)
system.mem_ctrls.dram.totMemAccLat       255163930250                       # Total ticks spent from burst creation until serviced by the DRAM (Tick)
system.mem_ctrls.dram.avgQLat                29167.57                       # Average queueing delay per DRAM burst ((Tick/Count))
system.mem_ctrls.dram.avgBusLat               5000.00                       # Average bus latency per DRAM burst ((Tick/Count))
system.mem_ctrls.dram.avgMemAccLat           47917.57                       # Average memory access latency per DRAM burst ((Tick/Count))
system.mem_ctrls.dram.readRowHits             4864099                       # Number of row buffer hits during reads (Count)
system.mem_ctrls.dram.writeRowHits            4914023                       # Number of row buffer hits during writes (Count)
system.mem_ctrls.dram.readRowHitRate            91.34                       # Row buffer hit rate for reads (Ratio)
system.mem_ctrls.dram.writeRowHitRate           92.87                       # Row buffer hit rate for writes (Ratio)
system.mem_ctrls.dram.bytesPerActivate::samples       838208                       # Bytes accessed per row activation (Byte)
system.mem_ctrls.dram.bytesPerActivate::mean   810.591662                       # Bytes accessed per row activation (Byte)
system.mem_ctrls.dram.bytesPerActivate::gmean   663.091077                       # Bytes accessed per row activation (Byte)
system.mem_ctrls.dram.bytesPerActivate::stdev   333.871814                       # Bytes accessed per row activation (Byte)
system.mem_ctrls.dram.bytesPerActivate::0-127        32803      3.91%      3.91% # Bytes accessed per row activation (Byte)
system.mem_ctrls.dram.bytesPerActivate::128-255        89382     10.66%     14.58% # Bytes accessed per row activation (Byte)
system.mem_ctrls.dram.bytesPerActivate::256-383        22535      2.69%     17.27% # Bytes accessed per row activation (Byte)
system.mem_ctrls.dram.bytesPerActivate::384-511        16897      2.02%     19.28% # Bytes accessed per row activation (Byte)
system.mem_ctrls.dram.bytesPerActivate::512-639        30864      3.68%     22.96% # Bytes accessed per row activation (Byte)
system.mem_ctrls.dram.bytesPerActivate::640-767        24385      2.91%     25.87% # Bytes accessed per row activation (Byte)
system.mem_ctrls.dram.bytesPerActivate::768-895        18395      2.19%     28.07% # Bytes accessed per row activation (Byte)
system.mem_ctrls.dram.bytesPerActivate::896-1023       188298     22.46%     50.53% # Bytes accessed per row activation (Byte)
system.mem_ctrls.dram.bytesPerActivate::1024-1151       414649     49.47%    100.00% # Bytes accessed per row activation (Byte)
system.mem_ctrls.dram.bytesPerActivate::total       838208                       # Bytes accessed per row activation (Byte)
system.mem_ctrls.dram.bytesRead             340803840                       # Total number of bytes read from DRAM (Byte)
system.mem_ctrls.dram.bytesWritten          338641344                       # Total number of bytes written to DRAM (Byte)
system.mem_ctrls.dram.avgRdBW             1687.076628                       # Average DRAM read bandwidth in MiBytes/s ((Byte/Second))
system.mem_ctrls.dram.avgWrBW             1676.371653                       # Average DRAM write bandwidth in MiBytes/s ((Byte/Second))
system.mem_ctrls.dram.peakBW                 12800.00                       # Theoretical peak bandwidth in MiByte/s ((Byte/Second))
system.mem_ctrls.dram.busUtil                   26.28                       # Data bus utilization in percentage (Ratio)
system.mem_ctrls.dram.busUtilRead               13.18                       # Data bus utilization in percentage for reads (Ratio)
system.mem_ctrls.dram.busUtilWrite              13.10                       # Data bus utilization in percentage for writes (Ratio)
system.mem_ctrls.dram.pageHitRate               92.10                       # Row buffer hit rate, read and write combined (Ratio)
system.mem_ctrls.dram.power_state.pwrStateResidencyTicks::UNDEFINED 202008512500                       # Cumulative time (in ticks) in various power states (Tick)
system.mem_ctrls.dram.rank0.actEnergy      2992859520                       # Energy for activate commands per rank (pJ) (Joule)
system.mem_ctrls.dram.rank0.preEnergy      1590738765                       # Energy for precharge commands per rank (pJ) (Joule)
system.mem_ctrls.dram.rank0.readEnergy    19008372180                       # Energy for read commands per rank (pJ) (Joule)
system.mem_ctrls.dram.rank0.writeEnergy   13808257200                       # Energy for write commands per rank (pJ) (Joule)
system.mem_ctrls.dram.rank0.refreshEnergy 15946220160.000002                       # Energy for refresh commands per rank (pJ) (Joule)
system.mem_ctrls.dram.rank0.actBackEnergy  51958644120                       # Energy for active background per rank (pJ) (Joule)
system.mem_ctrls.dram.rank0.preBackEnergy  33816621120                       # Energy for precharge background per rank (pJ) (Joule)
system.mem_ctrls.dram.rank0.actPowerDownEnergy            0                       # Energy for active power-down per rank (pJ) (Joule)
system.mem_ctrls.dram.rank0.prePowerDownEnergy            0                       # Energy for precharge power-down per rank (pJ) (Joule)
system.mem_ctrls.dram.rank0.selfRefreshEnergy            0                       # Energy for self refresh per rank (pJ) (Joule)
system.mem_ctrls.dram.rank0.totalEnergy  139121713065                       # Total energy per rank (pJ) (Joule)
system.mem_ctrls.dram.rank0.averagePower   688.692330                       # Core power per rank (mW) (Watt)
system.mem_ctrls.dram.rank0.totalIdleTime            0                       # Total Idle time Per DRAM Rank (Tick)
system.mem_ctrls.dram.rank0.pwrStateTime::IDLE  85740731500                       # Time in different power states (Tick)
system.mem_ctrls.dram.rank0.pwrStateTime::REF   6745440000                       # Time in different power states (Tick)
system.mem_ctrls.dram.rank0.pwrStateTime::SREF            0                       # Time in different power states (Tick)
system.mem_ctrls.dram.rank0.pwrStateTime::PRE_PDN            0                       # Time in different power states (Tick)
system.mem_ctrls.dram.rank0.pwrStateTime::ACT 109522341000                       # Time in different power states (Tick)
system.mem_ctrls.dram.rank0.pwrStateTime::ACT_PDN            0                       # Time in different power states (Tick)
system.mem_ctrls.dram.rank1.actEnergy      2991952740                       # Energy for activate commands per rank (pJ) (Joule)
system.mem_ctrls.dram.rank1.preEnergy      1590260595                       # Energy for precharge commands per rank (pJ) (Joule)
system.mem_ctrls.dram.rank1.readEnergy    19012556220                       # Energy for read commands per rank (pJ) (Joule)
system.mem_ctrls.dram.rank1.writeEnergy   13812177420                       # Energy for write commands per rank (pJ) (Joule)
system.mem_ctrls.dram.rank1.refreshEnergy 15946220160.000002                       # Energy for refresh commands per rank (pJ) (Joule)
system.mem_ctrls.dram.rank1.actBackEnergy  51895430550                       # Energy for active background per rank (pJ) (Joule)
system.mem_ctrls.dram.rank1.preBackEnergy  33869853600                       # Energy for precharge background per rank (pJ) (Joule)
system.mem_ctrls.dram.rank1.actPowerDownEnergy            0                       # Energy for active power-down per rank (pJ) (Joule)
system.mem_ctrls.dram.rank1.prePowerDownEnergy            0                       # Energy for precharge power-down per rank (pJ) (Joule)
system.mem_ctrls.dram.rank1.selfRefreshEnergy            0                       # Energy for self refresh per rank (pJ) (Joule)
system.mem_ctrls.dram.rank1.totalEnergy  139118451285                       # Total energy per rank (pJ) (Joule)
system.mem_ctrls.dram.rank1.averagePower   688.676183                       # Core power per rank (mW) (Watt)
system.mem_ctrls.dram.rank1.totalIdleTime            0                       # Total Idle time Per DRAM Rank (Tick)
system.mem_ctrls.dram.rank1.pwrStateTime::IDLE  85883013750                       # Time in different power states (Tick)
system.mem_ctrls.dram.rank1.pwrStateTime::REF   6745440000                       # Time in different power states (Tick)
system.mem_ctrls.dram.rank1.pwrStateTime::SREF            0                       # Time in different power states (Tick)
system.mem_ctrls.dram.rank1.pwrStateTime::PRE_PDN            0                       # Time in different power states (Tick)
system.mem_ctrls.dram.rank1.pwrStateTime::ACT 109380058750                       # Time in different power states (Tick)
system.mem_ctrls.dram.rank1.pwrStateTime::ACT_PDN            0                       # Time in different power states (Tick)
system.mem_ctrls.power_state.pwrStateResidencyTicks::UNDEFINED 202008512500                       # Cumulative time (in ticks) in various power states (Tick)
system.membus.transDist::ReadResp                1021                       # Transaction distribution (Count)
system.membus.transDist::WritebackDirty       5291302                       # Transaction distribution (Count)
system.membus.transDist::CleanEvict               921                       # Transaction distribution (Count)
system.membus.transDist::ReadExReq            5324039                       # Transaction distribution (Count)
system.membus.transDist::ReadExResp           5324039                       # Transaction distribution (Count)
system.membus.transDist::ReadSharedReq           1021                       # Transaction distribution (Count)
system.membus.pktCount_system.l2.mem_side_port::system.mem_ctrls.port     15942343                       # Packet count per connected requestor and responder (Count)
system.membus.pktCount::total                15942343                       # Packet count per connected requestor and responder (Count)
system.membus.pktSize_system.l2.mem_side_port::system.mem_ctrls.port    679447168                       # Cumulative packet size per connected requestor and responder (Byte)
system.membus.pktSize::total                679447168                       # Cumulative packet size per connected requestor and responder (Byte)
system.membus.snoops                                0                       # Total snoops (Count)
system.membus.snoopTraffic                          0                       # Total snoop traffic (Byte)
system.membus.snoopFanout::samples            5325060                       # Request fanout histogram (Count)
system.membus.snoopFanout::mean                     0                       # Request fanout histogram (Count)
system.membus.snoopFanout::stdev                    0                       # Request fanout histogram (Count)
system.membus.snoopFanout::underflows               0      0.00%      0.00% # Request fanout histogram (Count)
system.membus.snoopFanout::0                  5325060    100.00%    100.00% # Request fanout histogram (Count)
system.membus.snoopFanout::1                        0      0.00%    100.00% # Request fanout histogram (Count)
system.membus.snoopFanout::overflows                0      0.00%    100.00% # Request fanout histogram (Count)
system.membus.snoopFanout::min_value                0                       # Request fanout histogram (Count)
system.membus.snoopFanout::max_value                0                       # Request fanout histogram (Count)
system.membus.snoopFanout::total              5325060                       # Request fanout histogram (Count)
system.membus.power_state.pwrStateResidencyTicks::UNDEFINED 202008512500                       # Cumulative time (in ticks) in various power states (Tick)
system.membus.reqLayer0.occupancy         33561887000                       # Layer occupancy (ticks) (Tick)
system.membus.reqLayer0.utilization               0.2                       # Layer utilization (Ratio)
system.membus.respLayer1.occupancy        27381074000                       # Layer occupancy (ticks) (Tick)
system.membus.respLayer1.utilization              0.1                       # Layer utilization (Ratio)
system.membus.snoop_filter.totRequests       10617283                       # Total number of requests made to the snoop filter. (Count)
system.membus.snoop_filter.hitSingleRequests      5292228                       # Number of requests hitting in the snoop filter with a single holder of the requested data. (Count)
system.membus.snoop_filter.hitMultiRequests            0                       # Number of requests hitting in the snoop filter with multiple (>1) holders of the requested data. (Count)
system.membus.snoop_filter.totSnoops                0                       # Total number of snoops made to the snoop filter. (Count)
system.membus.snoop_filter.hitSingleSnoops            0                       # Number of snoops hitting in the snoop filter with a single holder of the requested data. (Count)
system.membus.snoop_filter.hitMultiSnoops            0                       # Number of snoops hitting in the snoop filter with multiple (>1) holders of the requested data. (Count)
system.tol2bus.transDist::ReadResp               6364                       # Transaction distribution (Count)
system.tol2bus.transDist::WritebackDirty     10619530                       # Transaction distribution (Count)
system.tol2bus.transDist::WritebackClean         1360                       # Transaction distribution (Count)
system.tol2bus.transDist::CleanEvict             5352                       # Transaction distribution (Count)
system.tol2bus.transDist::ReadExReq           5327648                       # Transaction distribution (Count)
system.tol2bus.transDist::ReadExResp          5327647                       # Transaction distribution (Count)
system.tol2bus.transDist::ReadCleanReq           1424                       # Transaction distribution (Count)
system.tol2bus.transDist::ReadSharedReq          4940                       # Transaction distribution (Count)
system.tol2bus.pktCount_system.cpu.icache.mem_side_port::system.l2.cpu_side_port         4208                       # Packet count per connected requestor and responder (Count)
system.tol2bus.pktCount_system.cpu.dcache.mem_side_port::system.l2.cpu_side_port     15997698                       # Packet count per connected requestor and responder (Count)
system.tol2bus.pktCount::total               16001906                       # Packet count per connected requestor and responder (Count)
system.tol2bus.pktSize_system.cpu.icache.mem_side_port::system.l2.cpu_side_port       178176                       # Cumulative packet size per connected requestor and responder (Byte)
system.tol2bus.pktSize_system.cpu.dcache.mem_side_port::system.l2.cpu_side_port    682292160                       # Cumulative packet size per connected requestor and responder (Byte)
system.tol2bus.pktSize::total               682470336                       # Cumulative packet size per connected requestor and responder (Byte)
system.tol2bus.snoops                         5292359                       # Total snoops (Count)
system.tol2bus.snoopTraffic                 338643328                       # Total snoop traffic (Byte)
system.tol2bus.snoopFanout::samples          10626371                       # Request fanout histogram (Count)
system.tol2bus.snoopFanout::mean             0.000032                       # Request fanout histogram (Count)
system.tol2bus.snoopFanout::stdev            0.005648                       # Request fanout histogram (Count)
system.tol2bus.snoopFanout::underflows              0      0.00%      0.00% # Request fanout histogram (Count)
system.tol2bus.snoopFanout::0                10626032    100.00%    100.00% # Request fanout histogram (Count)
system.tol2bus.snoopFanout::1                     339      0.00%    100.00% # Request fanout histogram (Count)
system.tol2bus.snoopFanout::2                       0      0.00%    100.00% # Request fanout histogram (Count)
system.tol2bus.snoopFanout::overflows               0      0.00%    100.00% # Request fanout histogram (Count)
system.tol2bus.snoopFanout::min_value               0                       # Request fanout histogram (Count)
system.tol2bus.snoopFanout::max_value               1                       # Request fanout histogram (Count)
system.tol2bus.snoopFanout::total            10626371                       # Request fanout histogram (Count)
system.tol2bus.power_state.pwrStateResidencyTicks::UNDEFINED 202008512500                       # Cumulative time (in ticks) in various power states (Tick)
system.tol2bus.reqLayer0.occupancy        10663535500                       # Layer occupancy (ticks) (Tick)
system.tol2bus.reqLayer0.utilization              0.1                       # Layer utilization (Ratio)
system.tol2bus.respLayer0.occupancy           2138495                       # Layer occupancy (ticks) (Tick)
system.tol2bus.respLayer0.utilization             0.0                       # Layer utilization (Ratio)
system.tol2bus.respLayer1.occupancy        7998887985                       # Layer occupancy (ticks) (Tick)
system.tol2bus.respLayer1.utilization             0.0                       # Layer utilization (Ratio)
system.tol2bus.snoop_filter.totRequests      10667895                       # Total number of requests made to the snoop filter. (Count)
system.tol2bus.snoop_filter.hitSingleRequests      5333883                       # Number of requests hitting in the snoop filter with a single holder of the requested data. (Count)
system.tol2bus.snoop_filter.hitMultiRequests          203                       # Number of requests hitting in the snoop filter with multiple (>1) holders of the requested data. (Count)
system.tol2bus.snoop_filter.totSnoops             136                       # Total number of snoops made to the snoop filter. (Count)
system.tol2bus.snoop_filter.hitSingleSnoops          136                       # Number of snoops hitting in the snoop filter with a single holder of the requested data. (Count)
system.tol2bus.snoop_filter.hitMultiSnoops            0                       # Number of snoops hitting in the snoop filter with multiple (>1) holders of the requested data. (Count)
system.voltage_domain.voltage                       1                       # Voltage in Volts (Volt)
system.workload.inst.arm                            0                       # number of arm instructions executed (Count)
system.workload.inst.quiesce                        0                       # number of quiesce instructions executed (Count)

---------- End Simulation Statistics   ----------
