
---------- Begin Simulation Statistics ----------
simSeconds                                   0.146570                       # Number of seconds simulated (Second)
simTicks                                 146570026000                       # Number of ticks simulated (Tick)
finalTick                                146570026000                       # Number of ticks from beginning of simulation (restored from checkpoints and never reset) (Tick)
simFreq                                  1000000000000                       # The number of ticks per simulated second ((Tick/Second))
hostSeconds                                   1075.90                       # Real time elapsed on the host (Second)
hostTickRate                                136229614                       # The number of ticks simulated per host second (ticks/s) ((Tick/Second))
hostMemory                                     710684                       # Number of bytes of host memory used (Byte)
simInsts                                    100000001                       # Number of instructions simulated (Count)
simOps                                      100000001                       # Number of ops (including micro ops) simulated (Count)
hostInstRate                                    92945                       # Simulator instruction rate (inst/s) ((Count/Second))
hostOpRate                                      92945                       # Simulator op (including micro ops) rate (op/s) ((Count/Second))
system.clk_domain.clock                          1000                       # Clock period in ticks (Tick)
system.cpu.numCycles                        293140053                       # Number of cpu cycles simulated (Cycle)
system.cpu.numWorkItemsStarted                      0                       # Number of work items this cpu started (Count)
system.cpu.numWorkItemsCompleted                    0                       # Number of work items this cpu completed (Count)
system.cpu.instsAdded                       102416066                       # Number of instructions added to the IQ (excludes non-spec) (Count)
system.cpu.nonSpecInstsAdded                       28                       # Number of non-speculative instructions added to the IQ (Count)
system.cpu.instsIssued                      102320428                       # Number of instructions issued (Count)
system.cpu.squashedInstsIssued                    408                       # Number of squashed instructions issued (Count)
system.cpu.squashedInstsExamined              2416092                       # Number of squashed instructions iterated over during squash; mainly for profiling (Count)
system.cpu.squashedOperandsExamined           1659967                       # Number of squashed operands that are examined and possibly removed from graph (Count)
system.cpu.squashedNonSpecRemoved                  12                       # Number of squashed non-spec instructions that were removed (Count)
system.cpu.numIssuedDist::samples           293092465                       # Number of insts issued each cycle (Count)
system.cpu.numIssuedDist::mean               0.349106                       # Number of insts issued each cycle (Count)
system.cpu.numIssuedDist::stdev              1.257152                       # Number of insts issued each cycle (Count)
system.cpu.numIssuedDist::underflows                0      0.00%      0.00% # Number of insts issued each cycle (Count)
system.cpu.numIssuedDist::0                 262765474     89.65%     89.65% # Number of insts issued each cycle (Count)
system.cpu.numIssuedDist::1                   9515997      3.25%     92.90% # Number of insts issued each cycle (Count)
system.cpu.numIssuedDist::2                   7524589      2.57%     95.47% # Number of insts issued each cycle (Count)
system.cpu.numIssuedDist::3                    244633      0.08%     95.55% # Number of insts issued each cycle (Count)
system.cpu.numIssuedDist::4                    285486      0.10%     95.65% # Number of insts issued each cycle (Count)
system.cpu.numIssuedDist::5                    894622      0.31%     95.95% # Number of insts issued each cycle (Count)
system.cpu.numIssuedDist::6                  11671071      3.98%     99.93% # Number of insts issued each cycle (Count)
system.cpu.numIssuedDist::7                    144870      0.05%     99.98% # Number of insts issued each cycle (Count)
system.cpu.numIssuedDist::8                     45723      0.02%    100.00% # Number of insts issued each cycle (Count)
system.cpu.numIssuedDist::overflows                 0      0.00%    100.00% # Number of insts issued each cycle (Count)
system.cpu.numIssuedDist::min_value                 0                       # Number of insts issued each cycle (Count)
system.cpu.numIssuedDist::max_value                 8                       # Number of insts issued each cycle (Count)
system.cpu.numIssuedDist::total             293092465                       # Number of insts issued each cycle (Count)
system.cpu.statFuBusy::No_OpClass                   0      0.00%      0.00% # attempts to use FU when none available (Count)
system.cpu.statFuBusy::IntAlu                   37975     77.04%     77.04% # attempts to use FU when none available (Count)
system.cpu.statFuBusy::IntMult                      0      0.00%     77.04% # attempts to use FU when none available (Count)
system.cpu.statFuBusy::IntDiv                       0      0.00%     77.04% # attempts to use FU when none available (Count)
system.cpu.statFuBusy::FloatAdd                     0      0.00%     77.04% # attempts to use FU when none available (Count)
system.cpu.statFuBusy::FloatCmp                     0      0.00%     77.04% # attempts to use FU when none available (Count)
system.cpu.statFuBusy::FloatCvt                     0      0.00%     77.04% # attempts to use FU when none available (Count)
system.cpu.statFuBusy::FloatMult                    0      0.00%     77.04% # attempts to use FU when none available (Count)
system.cpu.statFuBusy::FloatMultAcc                 0      0.00%     77.04% # attempts to use FU when none available (Count)
system.cpu.statFuBusy::FloatDiv                     0      0.00%     77.04% # attempts to use FU when none available (Count)
system.cpu.statFuBusy::FloatMisc                    0      0.00%     77.04% # attempts to use FU when none available (Count)
system.cpu.statFuBusy::FloatSqrt                    0      0.00%     77.04% # attempts to use FU when none available (Count)
system.cpu.statFuBusy::SimdAdd                      0      0.00%     77.04% # attempts to use FU when none available (Count)
system.cpu.statFuBusy::SimdAddAcc                   0      0.00%     77.04% # attempts to use FU when none available (Count)
system.cpu.statFuBusy::SimdAlu                      0      0.00%     77.04% # attempts to use FU when none available (Count)
system.cpu.statFuBusy::SimdCmp                      0      0.00%     77.04% # attempts to use FU when none available (Count)
system.cpu.statFuBusy::SimdCvt                      0      0.00%     77.04% # attempts to use FU when none available (Count)
system.cpu.statFuBusy::SimdMisc                     0      0.00%     77.04% # attempts to use FU when none available (Count)
system.cpu.statFuBusy::SimdMult                     0      0.00%     77.04% # attempts to use FU when none available (Count)
system.cpu.statFuBusy::SimdMultAcc                  0      0.00%     77.04% # attempts to use FU when none available (Count)
system.cpu.statFuBusy::SimdShift                    0      0.00%     77.04% # attempts to use FU when none available (Count)
system.cpu.statFuBusy::SimdShiftAcc                 0      0.00%     77.04% # attempts to use FU when none available (Count)
system.cpu.statFuBusy::SimdDiv                      0      0.00%     77.04% # attempts to use FU when none available (Count)
system.cpu.statFuBusy::SimdSqrt                     0      0.00%     77.04% # attempts to use FU when none available (Count)
system.cpu.statFuBusy::SimdFloatAdd                 0      0.00%     77.04% # attempts to use FU when none available (Count)
system.cpu.statFuBusy::SimdFloatAlu                 0      0.00%     77.04% # attempts to use FU when none available (Count)
system.cpu.statFuBusy::SimdFloatCmp                 0      0.00%     77.04% # attempts to use FU when none available (Count)
system.cpu.statFuBusy::SimdFloatCvt                 0      0.00%     77.04% # attempts to use FU when none available (Count)
system.cpu.statFuBusy::SimdFloatDiv                 0      0.00%     77.04% # attempts to use FU when none available (Count)
system.cpu.statFuBusy::SimdFloatMisc                0      0.00%     77.04% # attempts to use FU when none available (Count)
system.cpu.statFuBusy::SimdFloatMult                0      0.00%     77.04% # attempts to use FU when none available (Count)
system.cpu.statFuBusy::SimdFloatMultAcc             0      0.00%     77.04% # attempts to use FU when none available (Count)
system.cpu.statFuBusy::SimdFloatSqrt                0      0.00%     77.04% # attempts to use FU when none available (Count)
system.cpu.statFuBusy::SimdReduceAdd                0      0.00%     77.04% # attempts to use FU when none available (Count)
system.cpu.statFuBusy::SimdReduceAlu                0      0.00%     77.04% # attempts to use FU when none available (Count)
system.cpu.statFuBusy::SimdReduceCmp                0      0.00%     77.04% # attempts to use FU when none available (Count)
system.cpu.statFuBusy::SimdFloatReduceAdd            0      0.00%     77.04% # attempts to use FU when none available (Count)
system.cpu.statFuBusy::SimdFloatReduceCmp            0      0.00%     77.04% # attempts to use FU when none available (Count)
system.cpu.statFuBusy::SimdAes                      0      0.00%     77.04% # attempts to use FU when none available (Count)
system.cpu.statFuBusy::SimdAesMix                   0      0.00%     77.04% # attempts to use FU when none available (Count)
system.cpu.statFuBusy::SimdSha1Hash                 0      0.00%     77.04% # attempts to use FU when none available (Count)
system.cpu.statFuBusy::SimdSha1Hash2                0      0.00%     77.04% # attempts to use FU when none available (Count)
system.cpu.statFuBusy::SimdSha256Hash               0      0.00%     77.04% # attempts to use FU when none available (Count)
system.cpu.statFuBusy::SimdSha256Hash2              0      0.00%     77.04% # attempts to use FU when none available (Count)
system.cpu.statFuBusy::SimdShaSigma2                0      0.00%     77.04% # attempts to use FU when none available (Count)
system.cpu.statFuBusy::SimdShaSigma3                0      0.00%     77.04% # attempts to use FU when none available (Count)
system.cpu.statFuBusy::SimdPredAlu                  0      0.00%     77.04% # attempts to use FU when none available (Count)
system.cpu.statFuBusy::MemRead                  10589     21.48%     98.52% # attempts to use FU when none available (Count)
system.cpu.statFuBusy::MemWrite                   728      1.48%    100.00% # attempts to use FU when none available (Count)
system.cpu.statFuBusy::FloatMemRead                 0      0.00%    100.00% # attempts to use FU when none available (Count)
system.cpu.statFuBusy::FloatMemWrite                0      0.00%    100.00% # attempts to use FU when none available (Count)
system.cpu.statFuBusy::IprAccess                    0      0.00%    100.00% # attempts to use FU when none available (Count)
system.cpu.statFuBusy::InstPrefetch                 0      0.00%    100.00% # attempts to use FU when none available (Count)
system.cpu.statIssuedInstType_0::No_OpClass           16      0.00%      0.00% # Number of instructions issued per FU type, per thread (Count)
system.cpu.statIssuedInstType_0::IntAlu      36627323     35.80%     35.80% # Number of instructions issued per FU type, per thread (Count)
system.cpu.statIssuedInstType_0::IntMult            0      0.00%     35.80% # Number of instructions issued per FU type, per thread (Count)
system.cpu.statIssuedInstType_0::IntDiv             0      0.00%     35.80% # Number of instructions issued per FU type, per thread (Count)
system.cpu.statIssuedInstType_0::FloatAdd            0      0.00%     35.80% # Number of instructions issued per FU type, per thread (Count)
system.cpu.statIssuedInstType_0::FloatCmp            0      0.00%     35.80% # Number of instructions issued per FU type, per thread (Count)
system.cpu.statIssuedInstType_0::FloatCvt            0      0.00%     35.80% # Number of instructions issued per FU type, per thread (Count)
system.cpu.statIssuedInstType_0::FloatMult            0      0.00%     35.80% # Number of instructions issued per FU type, per thread (Count)
system.cpu.statIssuedInstType_0::FloatMultAcc            0      0.00%     35.80% # Number of instructions issued per FU type, per thread (Count)
system.cpu.statIssuedInstType_0::FloatDiv            0      0.00%     35.80% # Number of instructions issued per FU type, per thread (Count)
system.cpu.statIssuedInstType_0::FloatMisc            0      0.00%     35.80% # Number of instructions issued per FU type, per thread (Count)
system.cpu.statIssuedInstType_0::FloatSqrt            0      0.00%     35.80% # Number of instructions issued per FU type, per thread (Count)
system.cpu.statIssuedInstType_0::SimdAdd            0      0.00%     35.80% # Number of instructions issued per FU type, per thread (Count)
system.cpu.statIssuedInstType_0::SimdAddAcc            0      0.00%     35.80% # Number of instructions issued per FU type, per thread (Count)
system.cpu.statIssuedInstType_0::SimdAlu            0      0.00%     35.80% # Number of instructions issued per FU type, per thread (Count)
system.cpu.statIssuedInstType_0::SimdCmp            0      0.00%     35.80% # Number of instructions issued per FU type, per thread (Count)
system.cpu.statIssuedInstType_0::SimdCvt            0      0.00%     35.80% # Number of instructions issued per FU type, per thread (Count)
system.cpu.statIssuedInstType_0::SimdMisc            0      0.00%     35.80% # Number of instructions issued per FU type, per thread (Count)
system.cpu.statIssuedInstType_0::SimdMult            0      0.00%     35.80% # Number of instructions issued per FU type, per thread (Count)
system.cpu.statIssuedInstType_0::SimdMultAcc            0      0.00%     35.80% # Number of instructions issued per FU type, per thread (Count)
system.cpu.statIssuedInstType_0::SimdShift            0      0.00%     35.80% # Number of instructions issued per FU type, per thread (Count)
system.cpu.statIssuedInstType_0::SimdShiftAcc            0      0.00%     35.80% # Number of instructions issued per FU type, per thread (Count)
system.cpu.statIssuedInstType_0::SimdDiv            0      0.00%     35.80% # Number of instructions issued per FU type, per thread (Count)
system.cpu.statIssuedInstType_0::SimdSqrt            0      0.00%     35.80% # Number of instructions issued per FU type, per thread (Count)
system.cpu.statIssuedInstType_0::SimdFloatAdd            0      0.00%     35.80% # Number of instructions issued per FU type, per thread (Count)
system.cpu.statIssuedInstType_0::SimdFloatAlu            0      0.00%     35.80% # Number of instructions issued per FU type, per thread (Count)
system.cpu.statIssuedInstType_0::SimdFloatCmp            0      0.00%     35.80% # Number of instructions issued per FU type, per thread (Count)
system.cpu.statIssuedInstType_0::SimdFloatCvt            0      0.00%     35.80% # Number of instructions issued per FU type, per thread (Count)
system.cpu.statIssuedInstType_0::SimdFloatDiv            0      0.00%     35.80% # Number of instructions issued per FU type, per thread (Count)
system.cpu.statIssuedInstType_0::SimdFloatMisc            0      0.00%     35.80% # Number of instructions issued per FU type, per thread (Count)
system.cpu.statIssuedInstType_0::SimdFloatMult            0      0.00%     35.80% # Number of instructions issued per FU type, per thread (Count)
system.cpu.statIssuedInstType_0::SimdFloatMultAcc            0      0.00%     35.80% # Number of instructions issued per FU type, per thread (Count)
system.cpu.statIssuedInstType_0::SimdFloatSqrt            0      0.00%     35.80% # Number of instructions issued per FU type, per thread (Count)
system.cpu.statIssuedInstType_0::SimdReduceAdd            0      0.00%     35.80% # Number of instructions issued per FU type, per thread (Count)
system.cpu.statIssuedInstType_0::SimdReduceAlu            0      0.00%     35.80% # Number of instructions issued per FU type, per thread (Count)
system.cpu.statIssuedInstType_0::SimdReduceCmp            0      0.00%     35.80% # Number of instructions issued per FU type, per thread (Count)
system.cpu.statIssuedInstType_0::SimdFloatReduceAdd            0      0.00%     35.80% # Number of instructions issued per FU type, per thread (Count)
system.cpu.statIssuedInstType_0::SimdFloatReduceCmp            0      0.00%     35.80% # Number of instructions issued per FU type, per thread (Count)
system.cpu.statIssuedInstType_0::SimdAes            0      0.00%     35.80% # Number of instructions issued per FU type, per thread (Count)
system.cpu.statIssuedInstType_0::SimdAesMix            0      0.00%     35.80% # Number of instructions issued per FU type, per thread (Count)
system.cpu.statIssuedInstType_0::SimdSha1Hash            0      0.00%     35.80% # Number of instructions issued per FU type, per thread (Count)
system.cpu.statIssuedInstType_0::SimdSha1Hash2            0      0.00%     35.80% # Number of instructions issued per FU type, per thread (Count)
system.cpu.statIssuedInstType_0::SimdSha256Hash            0      0.00%     35.80% # Number of instructions issued per FU type, per thread (Count)
system.cpu.statIssuedInstType_0::SimdSha256Hash2            0      0.00%     35.80% # Number of instructions issued per FU type, per thread (Count)
system.cpu.statIssuedInstType_0::SimdShaSigma2            0      0.00%     35.80% # Number of instructions issued per FU type, per thread (Count)
system.cpu.statIssuedInstType_0::SimdShaSigma3            0      0.00%     35.80% # Number of instructions issued per FU type, per thread (Count)
system.cpu.statIssuedInstType_0::SimdPredAlu            0      0.00%     35.80% # Number of instructions issued per FU type, per thread (Count)
system.cpu.statIssuedInstType_0::MemRead      1349253      1.32%     37.12% # Number of instructions issued per FU type, per thread (Count)
system.cpu.statIssuedInstType_0::MemWrite     64343836     62.88%    100.00% # Number of instructions issued per FU type, per thread (Count)
system.cpu.statIssuedInstType_0::FloatMemRead            0      0.00%    100.00% # Number of instructions issued per FU type, per thread (Count)
system.cpu.statIssuedInstType_0::FloatMemWrite            0      0.00%    100.00% # Number of instructions issued per FU type, per thread (Count)
system.cpu.statIssuedInstType_0::IprAccess            0      0.00%    100.00% # Number of instructions issued per FU type, per thread (Count)
system.cpu.statIssuedInstType_0::InstPrefetch            0      0.00%    100.00% # Number of instructions issued per FU type, per thread (Count)
system.cpu.statIssuedInstType_0::total      102320428                       # Number of instructions issued per FU type, per thread (Count)
system.cpu.issueRate                         0.349050                       # Inst issue rate ((Count/Cycle))
system.cpu.fuBusy                               49292                       # FU busy when requested (Count)
system.cpu.fuBusyRate                        0.000482                       # FU busy rate (busy events/executed inst) ((Count/Count))
system.cpu.intInstQueueReads                497783020                       # Number of integer instruction queue reads (Count)
system.cpu.intInstQueueWrites               104832347                       # Number of integer instruction queue writes (Count)
system.cpu.intInstQueueWakeupAccesses       101546746                       # Number of integer instruction queue wakeup accesses (Count)
system.cpu.fpInstQueueReads                         0                       # Number of floating instruction queue reads (Count)
system.cpu.fpInstQueueWrites                        0                       # Number of floating instruction queue writes (Count)
system.cpu.fpInstQueueWakeupAccesses                0                       # Number of floating instruction queue wakeup accesses (Count)
system.cpu.vecInstQueueReads                        0                       # Number of vector instruction queue reads (Count)
system.cpu.vecInstQueueWrites                       0                       # Number of vector instruction queue writes (Count)
system.cpu.vecInstQueueWakeupAccesses               0                       # Number of vector instruction queue wakeup accesses (Count)
system.cpu.intAluAccesses                   102369704                       # Number of integer alu accesses (Count)
system.cpu.fpAluAccesses                            0                       # Number of floating point alu accesses (Count)
system.cpu.vecAluAccesses                           0                       # Number of vector alu accesses (Count)
system.cpu.idleCycles                               0                       # Number of cycles IEW is idle (Cycle)
system.cpu.squashCycles                         50182                       # Number of cycles IEW is squashing (Cycle)
system.cpu.blockCycles                         212188                       # Number of cycles IEW is blocking (Cycle)
system.cpu.unblockCycles                         3274                       # Number of cycles IEW is unblocking (Cycle)
system.cpu.dispatchedInsts                  102416094                       # Number of instructions dispatched to IQ (Count)
system.cpu.dispSquashedInsts                      838                       # Number of squashed instructions skipped by dispatch (Count)
system.cpu.dispLoadInsts                      1360265                       # Number of dispatched load instructions (Count)
system.cpu.dispStoreInsts                    64352053                       # Number of dispatched store instructions (Count)
system.cpu.dispNonSpecInsts                        28                       # Number of dispatched non-speculative instructions (Count)
system.cpu.iqFullEvents                            77                       # Number of times the IQ has become full, causing a stall (Count)
system.cpu.lsqFullEvents                         2584                       # Number of times the LSQ has become full, causing a stall (Count)
system.cpu.memOrderViolationEvents                169                       # Number of memory order violations (Count)
system.cpu.predictedTakenIncorrect               2838                       # Number of branches that were predicted taken incorrectly (Count)
system.cpu.predictedNotTakenIncorrect            3742                       # Number of branches that were predicted not taken incorrectly (Count)
system.cpu.branchMispredicts                     6580                       # Number of branch mispredicts detected at execute (Count)
system.cpu.numInsts                         102304718                       # Number of executed instructions (Count)
system.cpu.numLoadInsts                       1341612                       # Number of load instructions executed (Count)
system.cpu.numSquashedInsts                     15709                       # Number of squashed instructions skipped in execute (Count)
system.cpu.numSwp                                   0                       # Number of swp insts executed (Count)
system.cpu.numNop                                   0                       # Number of nop insts executed (Count)
system.cpu.numRefs                           65684491                       # Number of memory reference insts executed (Count)
system.cpu.numBranches                       16207247                       # Number of branches executed (Count)
system.cpu.numStoreInsts                     64342879                       # Number of stores executed (Count)
system.cpu.numRate                           0.348996                       # Inst execution rate ((Count/Cycle))
system.cpu.instsToCommit                    102295829                       # Cumulative count of insts sent to commit (Count)
system.cpu.writebackCount                   101546746                       # Cumulative count of insts written-back (Count)
system.cpu.producerInst                      21633288                       # Number of instructions producing a value (Count)
system.cpu.consumerInst                      83619136                       # Number of instructions consuming a value (Count)
system.cpu.wbRate                            0.346410                       # Insts written-back per cycle ((Count/Cycle))
system.cpu.wbFanout                          0.258712                       # Average fanout of values written-back ((Count/Count))
system.cpu.timesIdled                             805                       # Number of times that the entire CPU went into an idle state and unscheduled itself (Count)
system.cpu.idleCycles                           47588                       # Total number of cycles that the CPU has spent unscheduled due to idling (Cycle)
system.cpu.committedInsts                   100000001                       # Number of Instructions Simulated (Count)
system.cpu.committedOps                     100000001                       # Number of Ops (including micro ops) Simulated (Count)
system.cpu.cpi                               2.931401                       # CPI: Cycles Per Instruction ((Cycle/Count))
system.cpu.totalCpi                          2.931401                       # CPI: Total CPI of All Threads ((Cycle/Count))
system.cpu.ipc                               0.341134                       # IPC: Instructions Per Cycle ((Count/Cycle))
system.cpu.totalIpc                          0.341134                       # IPC: Total IPC of All Threads ((Count/Cycle))
system.cpu.intRegfileReads                  183733360                       # Number of integer regfile reads (Count)
system.cpu.intRegfileWrites                  21755298                       # Number of integer regfile writes (Count)
system.cpu.miscRegfileReads                        16                       # number of misc regfile reads (Count)
system.cpu.MemDepUnit__0.insertedLoads        1360265                       # Number of loads inserted to the mem dependence unit. (Count)
system.cpu.MemDepUnit__0.insertedStores      64352053                       # Number of stores inserted to the mem dependence unit. (Count)
system.cpu.MemDepUnit__0.conflictingLoads       156579                       # Number of conflicting loads. (Count)
system.cpu.MemDepUnit__0.conflictingStores        17686                       # Number of conflicting stores. (Count)
system.cpu.MemDepUnit__1.insertedLoads              0                       # Number of loads inserted to the mem dependence unit. (Count)
system.cpu.MemDepUnit__1.insertedStores             0                       # Number of stores inserted to the mem dependence unit. (Count)
system.cpu.MemDepUnit__1.conflictingLoads            0                       # Number of conflicting loads. (Count)
system.cpu.MemDepUnit__1.conflictingStores            0                       # Number of conflicting stores. (Count)
system.cpu.MemDepUnit__2.insertedLoads              0                       # Number of loads inserted to the mem dependence unit. (Count)
system.cpu.MemDepUnit__2.insertedStores             0                       # Number of stores inserted to the mem dependence unit. (Count)
system.cpu.MemDepUnit__2.conflictingLoads            0                       # Number of conflicting loads. (Count)
system.cpu.MemDepUnit__2.conflictingStores            0                       # Number of conflicting stores. (Count)
system.cpu.MemDepUnit__3.insertedLoads              0                       # Number of loads inserted to the mem dependence unit. (Count)
system.cpu.MemDepUnit__3.insertedStores             0                       # Number of stores inserted to the mem dependence unit. (Count)
system.cpu.MemDepUnit__3.conflictingLoads            0                       # Number of conflicting loads. (Count)
system.cpu.MemDepUnit__3.conflictingStores            0                       # Number of conflicting stores. (Count)
system.cpu.branchPred.lookups                16573686                       # Number of BP lookups (Count)
system.cpu.branchPred.condPredicted          16561359                       # Number of conditional branches predicted (Count)
system.cpu.branchPred.condIncorrect              6370                       # Number of conditional branches incorrect (Count)
system.cpu.branchPred.BTBLookups             16516453                       # Number of BTB lookups (Count)
system.cpu.branchPred.BTBHits                16515740                       # Number of BTB hits (Count)
system.cpu.branchPred.BTBMissPct             0.000043                       # BTB Miss Percentage (Ratio)
system.cpu.branchPred.BTBHitRatio            0.999957                       # BTB Hit Ratio (Ratio)
system.cpu.branchPred.RASUsed                       0                       # Number of times the RAS was used to get a target. (Count)
system.cpu.branchPred.RASIncorrect                  0                       # Number of incorrect RAS predictions. (Count)
system.cpu.branchPred.indirectLookups            4535                       # Number of indirect predictor lookups. (Count)
system.cpu.branchPred.indirectHits               2914                       # Number of indirect target hits. (Count)
system.cpu.branchPred.indirectMisses             1621                       # Number of indirect misses. (Count)
system.cpu.branchPred.indirectMispredicted          466                       # Number of mispredicted indirect branches. (Count)
system.cpu.commit.commitSquashedInsts         1405410                       # The number of squashed insts skipped by commit (Count)
system.cpu.commit.commitNonSpecStalls              16                       # The number of times commit has been forced to stall to communicate backwards (Count)
system.cpu.commit.branchMispredicts              6065                       # The number of times a branch was mispredicted (Count)
system.cpu.commit.numCommittedDist::samples    292879651                       # Number of insts commited each cycle (Count)
system.cpu.commit.numCommittedDist::mean     0.341437                       # Number of insts commited each cycle (Count)
system.cpu.commit.numCommittedDist::stdev     1.259127                       # Number of insts commited each cycle (Count)
system.cpu.commit.numCommittedDist::underflows            0      0.00%      0.00% # Number of insts commited each cycle (Count)
system.cpu.commit.numCommittedDist::0       263381286     89.93%     89.93% # Number of insts commited each cycle (Count)
system.cpu.commit.numCommittedDist::1         9630706      3.29%     93.22% # Number of insts commited each cycle (Count)
system.cpu.commit.numCommittedDist::2         7224388      2.47%     95.68% # Number of insts commited each cycle (Count)
system.cpu.commit.numCommittedDist::3          109862      0.04%     95.72% # Number of insts commited each cycle (Count)
system.cpu.commit.numCommittedDist::4           10244      0.00%     95.72% # Number of insts commited each cycle (Count)
system.cpu.commit.numCommittedDist::5          751931      0.26%     95.98% # Number of insts commited each cycle (Count)
system.cpu.commit.numCommittedDist::6        11165320      3.81%     99.79% # Number of insts commited each cycle (Count)
system.cpu.commit.numCommittedDist::7           48930      0.02%     99.81% # Number of insts commited each cycle (Count)
system.cpu.commit.numCommittedDist::8          556984      0.19%    100.00% # Number of insts commited each cycle (Count)
system.cpu.commit.numCommittedDist::overflows            0      0.00%    100.00% # Number of insts commited each cycle (Count)
system.cpu.commit.numCommittedDist::min_value            0                       # Number of insts commited each cycle (Count)
system.cpu.commit.numCommittedDist::max_value            8                       # Number of insts commited each cycle (Count)
system.cpu.commit.numCommittedDist::total    292879651                       # Number of insts commited each cycle (Count)
system.cpu.commit.instsCommitted            100000001                       # Number of instructions committed (Count)
system.cpu.commit.opsCommitted              100000001                       # Number of ops (including micro ops) committed (Count)
system.cpu.commit.memRefs                    64194500                       # Number of memory references committed (Count)
system.cpu.commit.loads                       1305861                       # Number of loads committed (Count)
system.cpu.commit.amos                              0                       # Number of atomic instructions committed (Count)
system.cpu.commit.membars                           0                       # Number of memory barriers committed (Count)
system.cpu.commit.branches                   15851234                       # Number of branches committed (Count)
system.cpu.commit.vectorInstructions                0                       # Number of committed Vector instructions. (Count)
system.cpu.commit.floating                          0                       # Number of committed floating point instructions. (Count)
system.cpu.commit.integer                   100000001                       # Number of committed integer instructions. (Count)
system.cpu.commit.functionCalls                  7269                       # Number of function calls committed. (Count)
system.cpu.commit.committedInstType_0::No_OpClass            0      0.00%      0.00% # Class of committed instruction (Count)
system.cpu.commit.committedInstType_0::IntAlu     35805501     35.81%     35.81% # Class of committed instruction (Count)
system.cpu.commit.committedInstType_0::IntMult            0      0.00%     35.81% # Class of committed instruction (Count)
system.cpu.commit.committedInstType_0::IntDiv            0      0.00%     35.81% # Class of committed instruction (Count)
system.cpu.commit.committedInstType_0::FloatAdd            0      0.00%     35.81% # Class of committed instruction (Count)
system.cpu.commit.committedInstType_0::FloatCmp            0      0.00%     35.81% # Class of committed instruction (Count)
system.cpu.commit.committedInstType_0::FloatCvt            0      0.00%     35.81% # Class of committed instruction (Count)
system.cpu.commit.committedInstType_0::FloatMult            0      0.00%     35.81% # Class of committed instruction (Count)
system.cpu.commit.committedInstType_0::FloatMultAcc            0      0.00%     35.81% # Class of committed instruction (Count)
system.cpu.commit.committedInstType_0::FloatDiv            0      0.00%     35.81% # Class of committed instruction (Count)
system.cpu.commit.committedInstType_0::FloatMisc            0      0.00%     35.81% # Class of committed instruction (Count)
system.cpu.commit.committedInstType_0::FloatSqrt            0      0.00%     35.81% # Class of committed instruction (Count)
system.cpu.commit.committedInstType_0::SimdAdd            0      0.00%     35.81% # Class of committed instruction (Count)
system.cpu.commit.committedInstType_0::SimdAddAcc            0      0.00%     35.81% # Class of committed instruction (Count)
system.cpu.commit.committedInstType_0::SimdAlu            0      0.00%     35.81% # Class of committed instruction (Count)
system.cpu.commit.committedInstType_0::SimdCmp            0      0.00%     35.81% # Class of committed instruction (Count)
system.cpu.commit.committedInstType_0::SimdCvt            0      0.00%     35.81% # Class of committed instruction (Count)
system.cpu.commit.committedInstType_0::SimdMisc            0      0.00%     35.81% # Class of committed instruction (Count)
system.cpu.commit.committedInstType_0::SimdMult            0      0.00%     35.81% # Class of committed instruction (Count)
system.cpu.commit.committedInstType_0::SimdMultAcc            0      0.00%     35.81% # Class of committed instruction (Count)
system.cpu.commit.committedInstType_0::SimdShift            0      0.00%     35.81% # Class of committed instruction (Count)
system.cpu.commit.committedInstType_0::SimdShiftAcc            0      0.00%     35.81% # Class of committed instruction (Count)
system.cpu.commit.committedInstType_0::SimdDiv            0      0.00%     35.81% # Class of committed instruction (Count)
system.cpu.commit.committedInstType_0::SimdSqrt            0      0.00%     35.81% # Class of committed instruction (Count)
system.cpu.commit.committedInstType_0::SimdFloatAdd            0      0.00%     35.81% # Class of committed instruction (Count)
system.cpu.commit.committedInstType_0::SimdFloatAlu            0      0.00%     35.81% # Class of committed instruction (Count)
system.cpu.commit.committedInstType_0::SimdFloatCmp            0      0.00%     35.81% # Class of committed instruction (Count)
system.cpu.commit.committedInstType_0::SimdFloatCvt            0      0.00%     35.81% # Class of committed instruction (Count)
system.cpu.commit.committedInstType_0::SimdFloatDiv            0      0.00%     35.81% # Class of committed instruction (Count)
system.cpu.commit.committedInstType_0::SimdFloatMisc            0      0.00%     35.81% # Class of committed instruction (Count)
system.cpu.commit.committedInstType_0::SimdFloatMult            0      0.00%     35.81% # Class of committed instruction (Count)
system.cpu.commit.committedInstType_0::SimdFloatMultAcc            0      0.00%     35.81% # Class of committed instruction (Count)
system.cpu.commit.committedInstType_0::SimdFloatSqrt            0      0.00%     35.81% # Class of committed instruction (Count)
system.cpu.commit.committedInstType_0::SimdReduceAdd            0      0.00%     35.81% # Class of committed instruction (Count)
system.cpu.commit.committedInstType_0::SimdReduceAlu            0      0.00%     35.81% # Class of committed instruction (Count)
system.cpu.commit.committedInstType_0::SimdReduceCmp            0      0.00%     35.81% # Class of committed instruction (Count)
system.cpu.commit.committedInstType_0::SimdFloatReduceAdd            0      0.00%     35.81% # Class of committed instruction (Count)
system.cpu.commit.committedInstType_0::SimdFloatReduceCmp            0      0.00%     35.81% # Class of committed instruction (Count)
system.cpu.commit.committedInstType_0::SimdAes            0      0.00%     35.81% # Class of committed instruction (Count)
system.cpu.commit.committedInstType_0::SimdAesMix            0      0.00%     35.81% # Class of committed instruction (Count)
system.cpu.commit.committedInstType_0::SimdSha1Hash            0      0.00%     35.81% # Class of committed instruction (Count)
system.cpu.commit.committedInstType_0::SimdSha1Hash2            0      0.00%     35.81% # Class of committed instruction (Count)
system.cpu.commit.committedInstType_0::SimdSha256Hash            0      0.00%     35.81% # Class of committed instruction (Count)
system.cpu.commit.committedInstType_0::SimdSha256Hash2            0      0.00%     35.81% # Class of committed instruction (Count)
system.cpu.commit.committedInstType_0::SimdShaSigma2            0      0.00%     35.81% # Class of committed instruction (Count)
system.cpu.commit.committedInstType_0::SimdShaSigma3            0      0.00%     35.81% # Class of committed instruction (Count)
system.cpu.commit.committedInstType_0::SimdPredAlu            0      0.00%     35.81% # Class of committed instruction (Count)
system.cpu.commit.committedInstType_0::MemRead      1305861      1.31%     37.11% # Class of committed instruction (Count)
system.cpu.commit.committedInstType_0::MemWrite     62888639     62.89%    100.00% # Class of committed instruction (Count)
system.cpu.commit.committedInstType_0::FloatMemRead            0      0.00%    100.00% # Class of committed instruction (Count)
system.cpu.commit.committedInstType_0::FloatMemWrite            0      0.00%    100.00% # Class of committed instruction (Count)
system.cpu.commit.committedInstType_0::IprAccess            0      0.00%    100.00% # Class of committed instruction (Count)
system.cpu.commit.committedInstType_0::InstPrefetch            0      0.00%    100.00% # Class of committed instruction (Count)
system.cpu.commit.committedInstType_0::total    100000001                       # Class of committed instruction (Count)
system.cpu.commit.commitEligibleSamples        556984                       # number cycles where commit BW limit reached (Cycle)
system.cpu.dcache.demandHits::cpu.data        1388754                       # number of demand (read+write) hits (Count)
system.cpu.dcache.demandHits::total           1388754                       # number of demand (read+write) hits (Count)
system.cpu.dcache.overallHits::cpu.data       1388754                       # number of overall hits (Count)
system.cpu.dcache.overallHits::total          1388754                       # number of overall hits (Count)
system.cpu.dcache.demandMisses::cpu.data     62682276                       # number of demand (read+write) misses (Count)
system.cpu.dcache.demandMisses::total        62682276                       # number of demand (read+write) misses (Count)
system.cpu.dcache.overallMisses::cpu.data     62682276                       # number of overall misses (Count)
system.cpu.dcache.overallMisses::total       62682276                       # number of overall misses (Count)
system.cpu.dcache.demandMissLatency::cpu.data 4402629131964                       # number of demand (read+write) miss ticks (Tick)
system.cpu.dcache.demandMissLatency::total 4402629131964                       # number of demand (read+write) miss ticks (Tick)
system.cpu.dcache.overallMissLatency::cpu.data 4402629131964                       # number of overall miss ticks (Tick)
system.cpu.dcache.overallMissLatency::total 4402629131964                       # number of overall miss ticks (Tick)
system.cpu.dcache.demandAccesses::cpu.data     64071030                       # number of demand (read+write) accesses (Count)
system.cpu.dcache.demandAccesses::total      64071030                       # number of demand (read+write) accesses (Count)
system.cpu.dcache.overallAccesses::cpu.data     64071030                       # number of overall (read+write) accesses (Count)
system.cpu.dcache.overallAccesses::total     64071030                       # number of overall (read+write) accesses (Count)
system.cpu.dcache.demandMissRate::cpu.data     0.978325                       # miss rate for demand accesses (Ratio)
system.cpu.dcache.demandMissRate::total      0.978325                       # miss rate for demand accesses (Ratio)
system.cpu.dcache.overallMissRate::cpu.data     0.978325                       # miss rate for overall accesses (Ratio)
system.cpu.dcache.overallMissRate::total     0.978325                       # miss rate for overall accesses (Ratio)
system.cpu.dcache.demandAvgMissLatency::cpu.data 70237.225144                       # average overall miss latency ((Cycle/Count))
system.cpu.dcache.demandAvgMissLatency::total 70237.225144                       # average overall miss latency ((Cycle/Count))
system.cpu.dcache.overallAvgMissLatency::cpu.data 70237.225144                       # average overall miss latency ((Cycle/Count))
system.cpu.dcache.overallAvgMissLatency::total 70237.225144                       # average overall miss latency ((Cycle/Count))
system.cpu.dcache.blockedCycles::no_mshrs        58251                       # number of cycles access was blocked (Cycle)
system.cpu.dcache.blockedCycles::no_targets          880                       # number of cycles access was blocked (Cycle)
system.cpu.dcache.blockedCauses::no_mshrs          636                       # number of times access was blocked (Count)
system.cpu.dcache.blockedCauses::no_targets            4                       # number of times access was blocked (Count)
system.cpu.dcache.avgBlocked::no_mshrs      91.589623                       # average number of cycles each access was blocked ((Cycle/Count))
system.cpu.dcache.avgBlocked::no_targets          220                       # average number of cycles each access was blocked ((Cycle/Count))
system.cpu.dcache.writebacks::writebacks      3923839                       # number of writebacks (Count)
system.cpu.dcache.writebacks::total           3923839                       # number of writebacks (Count)
system.cpu.dcache.demandMshrHits::cpu.data     58756598                       # number of demand (read+write) MSHR hits (Count)
system.cpu.dcache.demandMshrHits::total      58756598                       # number of demand (read+write) MSHR hits (Count)
system.cpu.dcache.overallMshrHits::cpu.data     58756598                       # number of overall MSHR hits (Count)
system.cpu.dcache.overallMshrHits::total     58756598                       # number of overall MSHR hits (Count)
system.cpu.dcache.demandMshrMisses::cpu.data      3925678                       # number of demand (read+write) MSHR misses (Count)
system.cpu.dcache.demandMshrMisses::total      3925678                       # number of demand (read+write) MSHR misses (Count)
system.cpu.dcache.overallMshrMisses::cpu.data      3925678                       # number of overall MSHR misses (Count)
system.cpu.dcache.overallMshrMisses::total      3925678                       # number of overall MSHR misses (Count)
system.cpu.dcache.demandMshrMissLatency::cpu.data 396078513470                       # number of demand (read+write) MSHR miss ticks (Tick)
system.cpu.dcache.demandMshrMissLatency::total 396078513470                       # number of demand (read+write) MSHR miss ticks (Tick)
system.cpu.dcache.overallMshrMissLatency::cpu.data 396078513470                       # number of overall MSHR miss ticks (Tick)
system.cpu.dcache.overallMshrMissLatency::total 396078513470                       # number of overall MSHR miss ticks (Tick)
system.cpu.dcache.demandMshrMissRate::cpu.data     0.061271                       # mshr miss ratio for demand accesses (Ratio)
system.cpu.dcache.demandMshrMissRate::total     0.061271                       # mshr miss ratio for demand accesses (Ratio)
system.cpu.dcache.overallMshrMissRate::cpu.data     0.061271                       # mshr miss ratio for overall accesses (Ratio)
system.cpu.dcache.overallMshrMissRate::total     0.061271                       # mshr miss ratio for overall accesses (Ratio)
system.cpu.dcache.demandAvgMshrMissLatency::cpu.data 100894.294812                       # average overall mshr miss latency ((Cycle/Count))
system.cpu.dcache.demandAvgMshrMissLatency::total 100894.294812                       # average overall mshr miss latency ((Cycle/Count))
system.cpu.dcache.overallAvgMshrMissLatency::cpu.data 100894.294812                       # average overall mshr miss latency ((Cycle/Count))
system.cpu.dcache.overallAvgMshrMissLatency::total 100894.294812                       # average overall mshr miss latency ((Cycle/Count))
system.cpu.dcache.replacements                3925613                       # number of replacements (Count)
system.cpu.dcache.ReadReq.hits::cpu.data      1178755                       # number of ReadReq hits (Count)
system.cpu.dcache.ReadReq.hits::total         1178755                       # number of ReadReq hits (Count)
system.cpu.dcache.ReadReq.misses::cpu.data         3641                       # number of ReadReq misses (Count)
system.cpu.dcache.ReadReq.misses::total          3641                       # number of ReadReq misses (Count)
system.cpu.dcache.ReadReq.missLatency::cpu.data     63231500                       # number of ReadReq miss ticks (Tick)
system.cpu.dcache.ReadReq.missLatency::total     63231500                       # number of ReadReq miss ticks (Tick)
system.cpu.dcache.ReadReq.accesses::cpu.data      1182396                       # number of ReadReq accesses(hits+misses) (Count)
system.cpu.dcache.ReadReq.accesses::total      1182396                       # number of ReadReq accesses(hits+misses) (Count)
system.cpu.dcache.ReadReq.missRate::cpu.data     0.003079                       # miss rate for ReadReq accesses (Ratio)
system.cpu.dcache.ReadReq.missRate::total     0.003079                       # miss rate for ReadReq accesses (Ratio)
system.cpu.dcache.ReadReq.avgMissLatency::cpu.data 17366.520187                       # average ReadReq miss latency ((Tick/Count))
system.cpu.dcache.ReadReq.avgMissLatency::total 17366.520187                       # average ReadReq miss latency ((Tick/Count))
system.cpu.dcache.ReadReq.mshrHits::cpu.data         1716                       # number of ReadReq MSHR hits (Count)
system.cpu.dcache.ReadReq.mshrHits::total         1716                       # number of ReadReq MSHR hits (Count)
system.cpu.dcache.ReadReq.mshrMisses::cpu.data         1925                       # number of ReadReq MSHR misses (Count)
system.cpu.dcache.ReadReq.mshrMisses::total         1925                       # number of ReadReq MSHR misses (Count)
system.cpu.dcache.ReadReq.mshrMissLatency::cpu.data     34639000                       # number of ReadReq MSHR miss ticks (Tick)
system.cpu.dcache.ReadReq.mshrMissLatency::total     34639000                       # number of ReadReq MSHR miss ticks (Tick)
system.cpu.dcache.ReadReq.mshrMissRate::cpu.data     0.001628                       # mshr miss rate for ReadReq accesses (Ratio)
system.cpu.dcache.ReadReq.mshrMissRate::total     0.001628                       # mshr miss rate for ReadReq accesses (Ratio)
system.cpu.dcache.ReadReq.avgMshrMissLatency::cpu.data 17994.285714                       # average ReadReq mshr miss latency ((Tick/Count))
system.cpu.dcache.ReadReq.avgMshrMissLatency::total 17994.285714                       # average ReadReq mshr miss latency ((Tick/Count))
system.cpu.dcache.WriteReq.hits::cpu.data       209999                       # number of WriteReq hits (Count)
system.cpu.dcache.WriteReq.hits::total         209999                       # number of WriteReq hits (Count)
system.cpu.dcache.WriteReq.misses::cpu.data     62678635                       # number of WriteReq misses (Count)
system.cpu.dcache.WriteReq.misses::total     62678635                       # number of WriteReq misses (Count)
system.cpu.dcache.WriteReq.missLatency::cpu.data 4402565900464                       # number of WriteReq miss ticks (Tick)
system.cpu.dcache.WriteReq.missLatency::total 4402565900464                       # number of WriteReq miss ticks (Tick)
system.cpu.dcache.WriteReq.accesses::cpu.data     62888634                       # number of WriteReq accesses(hits+misses) (Count)
system.cpu.dcache.WriteReq.accesses::total     62888634                       # number of WriteReq accesses(hits+misses) (Count)
system.cpu.dcache.WriteReq.missRate::cpu.data     0.996661                       # miss rate for WriteReq accesses (Ratio)
system.cpu.dcache.WriteReq.missRate::total     0.996661                       # miss rate for WriteReq accesses (Ratio)
system.cpu.dcache.WriteReq.avgMissLatency::cpu.data 70240.296402                       # average WriteReq miss latency ((Tick/Count))
system.cpu.dcache.WriteReq.avgMissLatency::total 70240.296402                       # average WriteReq miss latency ((Tick/Count))
system.cpu.dcache.WriteReq.mshrHits::cpu.data     58754882                       # number of WriteReq MSHR hits (Count)
system.cpu.dcache.WriteReq.mshrHits::total     58754882                       # number of WriteReq MSHR hits (Count)
system.cpu.dcache.WriteReq.mshrMisses::cpu.data      3923753                       # number of WriteReq MSHR misses (Count)
system.cpu.dcache.WriteReq.mshrMisses::total      3923753                       # number of WriteReq MSHR misses (Count)
system.cpu.dcache.WriteReq.mshrMissLatency::cpu.data 396043874470                       # number of WriteReq MSHR miss ticks (Tick)
system.cpu.dcache.WriteReq.mshrMissLatency::total 396043874470                       # number of WriteReq MSHR miss ticks (Tick)
system.cpu.dcache.WriteReq.mshrMissRate::cpu.data     0.062392                       # mshr miss rate for WriteReq accesses (Ratio)
system.cpu.dcache.WriteReq.mshrMissRate::total     0.062392                       # mshr miss rate for WriteReq accesses (Ratio)
system.cpu.dcache.WriteReq.avgMshrMissLatency::cpu.data 100934.965700                       # average WriteReq mshr miss latency ((Tick/Count))
system.cpu.dcache.WriteReq.avgMshrMissLatency::total 100934.965700                       # average WriteReq mshr miss latency ((Tick/Count))
system.cpu.dcache.power_state.pwrStateResidencyTicks::UNDEFINED 146570026000                       # Cumulative time (in ticks) in various power states (Tick)
system.cpu.dcache.tags.tagsInUse            63.999448                       # Average ticks per tags in use ((Tick/Count))
system.cpu.dcache.tags.totalRefs              5314431                       # Total number of references to valid blocks. (Count)
system.cpu.dcache.tags.sampledRefs            3925677                       # Sample count of references to valid blocks. (Count)
system.cpu.dcache.tags.avgRefs               1.353762                       # Average number of references to valid blocks. ((Count/Count))
system.cpu.dcache.tags.warmupTick              349500                       # The tick when the warmup percentage was hit. (Tick)
system.cpu.dcache.tags.occupancies::cpu.data    63.999448                       # Average occupied blocks per tick, per requestor ((Count/Tick))
system.cpu.dcache.tags.avgOccs::cpu.data     0.999991                       # Average percentage of cache occupancy ((Ratio/Tick))
system.cpu.dcache.tags.avgOccs::total        0.999991                       # Average percentage of cache occupancy ((Ratio/Tick))
system.cpu.dcache.tags.occupanciesTaskId::1024           64                       # Occupied blocks per task id (Count)
system.cpu.dcache.tags.ageTaskId_1024::0           64                       # Occupied blocks per task id, per block age (Count)
system.cpu.dcache.tags.ratioOccsTaskId::1024            1                       # Ratio of occupied blocks and all blocks, per task id (Ratio)
system.cpu.dcache.tags.tagAccesses          132067737                       # Number of tag accesses (Count)
system.cpu.dcache.tags.dataAccesses         132067737                       # Number of data accesses (Count)
system.cpu.dcache.tags.power_state.pwrStateResidencyTicks::UNDEFINED 146570026000                       # Cumulative time (in ticks) in various power states (Tick)
system.cpu.decode.idleCycles                  4430619                       # Number of cycles decode is idle (Cycle)
system.cpu.decode.blockedCycles             275637349                       # Number of cycles decode is blocked (Cycle)
system.cpu.decode.runCycles                   2124543                       # Number of cycles decode is running (Cycle)
system.cpu.decode.unblockCycles              10849772                       # Number of cycles decode is unblocking (Cycle)
system.cpu.decode.squashCycles                  50182                       # Number of cycles decode is squashing (Cycle)
system.cpu.decode.branchResolved             16163034                       # Number of times decode resolved a branch (Count)
system.cpu.decode.branchMispred                   318                       # Number of times decode detected a branch misprediction (Count)
system.cpu.decode.decodedInsts              102531733                       # Number of instructions handled by decode (Count)
system.cpu.decode.squashedInsts                  1225                       # Number of squashed instructions handled by decode (Count)
system.cpu.dtb_walker_cache.blockedCycles::no_mshrs            0                       # number of cycles access was blocked (Cycle)
system.cpu.dtb_walker_cache.blockedCycles::no_targets            0                       # number of cycles access was blocked (Cycle)
system.cpu.dtb_walker_cache.blockedCauses::no_mshrs            0                       # number of times access was blocked (Count)
system.cpu.dtb_walker_cache.blockedCauses::no_targets            0                       # number of times access was blocked (Count)
system.cpu.dtb_walker_cache.avgBlocked::no_mshrs          nan                       # average number of cycles each access was blocked ((Cycle/Count))
system.cpu.dtb_walker_cache.avgBlocked::no_targets          nan                       # average number of cycles each access was blocked ((Cycle/Count))
system.cpu.dtb_walker_cache.replacements            0                       # number of replacements (Count)
system.cpu.dtb_walker_cache.power_state.pwrStateResidencyTicks::UNDEFINED 146570026000                       # Cumulative time (in ticks) in various power states (Tick)
system.cpu.dtb_walker_cache.tags.tagsInUse            0                       # Average ticks per tags in use ((Tick/Count))
system.cpu.dtb_walker_cache.tags.totalRefs            0                       # Total number of references to valid blocks. (Count)
system.cpu.dtb_walker_cache.tags.sampledRefs            0                       # Sample count of references to valid blocks. (Count)
system.cpu.dtb_walker_cache.tags.avgRefs          nan                       # Average number of references to valid blocks. ((Count/Count))
system.cpu.dtb_walker_cache.tags.warmupTick            0                       # The tick when the warmup percentage was hit. (Tick)
system.cpu.dtb_walker_cache.tags.tagAccesses            0                       # Number of tag accesses (Count)
system.cpu.dtb_walker_cache.tags.dataAccesses            0                       # Number of data accesses (Count)
system.cpu.dtb_walker_cache.tags.power_state.pwrStateResidencyTicks::UNDEFINED 146570026000                       # Cumulative time (in ticks) in various power states (Tick)
system.cpu.fetch.icacheStallCycles             471231                       # Number of cycles fetch is stalled on an Icache miss (Cycle)
system.cpu.fetch.insts                      104709806                       # Number of instructions fetch has processed (Count)
system.cpu.fetch.branches                    16573686                       # Number of branches that fetch encountered (Count)
system.cpu.fetch.predictedBranches           16518654                       # Number of branches that fetch has predicted taken (Count)
system.cpu.fetch.cycles                     292570441                       # Number of cycles fetch has run and was not squashing or blocked (Cycle)
system.cpu.fetch.squashCycles                  100974                       # Number of cycles fetch has spent squashing (Cycle)
system.cpu.fetch.miscStallCycles                  109                       # Number of cycles fetch has spent waiting on interrupts, or bad addresses, or out of MSHRs (Cycle)
system.cpu.fetch.icacheWaitRetryStallCycles          197                       # Number of stall cycles due to full MSHR (Cycle)
system.cpu.fetch.cacheLines                    447951                       # Number of cache lines fetched (Count)
system.cpu.fetch.icacheSquashes                  2823                       # Number of outstanding Icache misses that were squashed (Count)
system.cpu.fetch.nisnDist::samples          293092465                       # Number of instructions fetched each cycle (Total) (Count)
system.cpu.fetch.nisnDist::mean              0.357259                       # Number of instructions fetched each cycle (Total) (Count)
system.cpu.fetch.nisnDist::stdev             1.304903                       # Number of instructions fetched each cycle (Total) (Count)
system.cpu.fetch.nisnDist::underflows               0      0.00%      0.00% # Number of instructions fetched each cycle (Total) (Count)
system.cpu.fetch.nisnDist::0                269405010     91.92%     91.92% # Number of instructions fetched each cycle (Total) (Count)
system.cpu.fetch.nisnDist::1                    74317      0.03%     91.94% # Number of instructions fetched each cycle (Total) (Count)
system.cpu.fetch.nisnDist::2                  6399306      2.18%     94.13% # Number of instructions fetched each cycle (Total) (Count)
system.cpu.fetch.nisnDist::3                    24777      0.01%     94.14% # Number of instructions fetched each cycle (Total) (Count)
system.cpu.fetch.nisnDist::4                  6366855      2.17%     96.31% # Number of instructions fetched each cycle (Total) (Count)
system.cpu.fetch.nisnDist::5                    22433      0.01%     96.32% # Number of instructions fetched each cycle (Total) (Count)
system.cpu.fetch.nisnDist::6                 10097748      3.45%     99.76% # Number of instructions fetched each cycle (Total) (Count)
system.cpu.fetch.nisnDist::7                    19679      0.01%     99.77% # Number of instructions fetched each cycle (Total) (Count)
system.cpu.fetch.nisnDist::8                   682340      0.23%    100.00% # Number of instructions fetched each cycle (Total) (Count)
system.cpu.fetch.nisnDist::overflows                0      0.00%    100.00% # Number of instructions fetched each cycle (Total) (Count)
system.cpu.fetch.nisnDist::min_value                0                       # Number of instructions fetched each cycle (Total) (Count)
system.cpu.fetch.nisnDist::max_value                8                       # Number of instructions fetched each cycle (Total) (Count)
system.cpu.fetch.nisnDist::total            293092465                       # Number of instructions fetched each cycle (Total) (Count)
system.cpu.fetch.branchRate                  0.056538                       # Number of branch fetches per cycle (Ratio)
system.cpu.fetch.rate                        0.357201                       # Number of inst fetches per cycle ((Count/Cycle))
system.cpu.icache.demandHits::cpu.inst         446381                       # number of demand (read+write) hits (Count)
system.cpu.icache.demandHits::total            446381                       # number of demand (read+write) hits (Count)
system.cpu.icache.overallHits::cpu.inst        446381                       # number of overall hits (Count)
system.cpu.icache.overallHits::total           446381                       # number of overall hits (Count)
system.cpu.icache.demandMisses::cpu.inst         1568                       # number of demand (read+write) misses (Count)
system.cpu.icache.demandMisses::total            1568                       # number of demand (read+write) misses (Count)
system.cpu.icache.overallMisses::cpu.inst         1568                       # number of overall misses (Count)
system.cpu.icache.overallMisses::total           1568                       # number of overall misses (Count)
system.cpu.icache.demandMissLatency::cpu.inst     74385998                       # number of demand (read+write) miss ticks (Tick)
system.cpu.icache.demandMissLatency::total     74385998                       # number of demand (read+write) miss ticks (Tick)
system.cpu.icache.overallMissLatency::cpu.inst     74385998                       # number of overall miss ticks (Tick)
system.cpu.icache.overallMissLatency::total     74385998                       # number of overall miss ticks (Tick)
system.cpu.icache.demandAccesses::cpu.inst       447949                       # number of demand (read+write) accesses (Count)
system.cpu.icache.demandAccesses::total        447949                       # number of demand (read+write) accesses (Count)
system.cpu.icache.overallAccesses::cpu.inst       447949                       # number of overall (read+write) accesses (Count)
system.cpu.icache.overallAccesses::total       447949                       # number of overall (read+write) accesses (Count)
system.cpu.icache.demandMissRate::cpu.inst     0.003500                       # miss rate for demand accesses (Ratio)
system.cpu.icache.demandMissRate::total      0.003500                       # miss rate for demand accesses (Ratio)
system.cpu.icache.overallMissRate::cpu.inst     0.003500                       # miss rate for overall accesses (Ratio)
system.cpu.icache.overallMissRate::total     0.003500                       # miss rate for overall accesses (Ratio)
system.cpu.icache.demandAvgMissLatency::cpu.inst 47440.049745                       # average overall miss latency ((Cycle/Count))
system.cpu.icache.demandAvgMissLatency::total 47440.049745                       # average overall miss latency ((Cycle/Count))
system.cpu.icache.overallAvgMissLatency::cpu.inst 47440.049745                       # average overall miss latency ((Cycle/Count))
system.cpu.icache.overallAvgMissLatency::total 47440.049745                       # average overall miss latency ((Cycle/Count))
system.cpu.icache.blockedCycles::no_mshrs         1017                       # number of cycles access was blocked (Cycle)
system.cpu.icache.blockedCycles::no_targets            0                       # number of cycles access was blocked (Cycle)
system.cpu.icache.blockedCauses::no_mshrs           31                       # number of times access was blocked (Count)
system.cpu.icache.blockedCauses::no_targets            0                       # number of times access was blocked (Count)
system.cpu.icache.avgBlocked::no_mshrs      32.806452                       # average number of cycles each access was blocked ((Cycle/Count))
system.cpu.icache.avgBlocked::no_targets          nan                       # average number of cycles each access was blocked ((Cycle/Count))
system.cpu.icache.writebacks::writebacks         1190                       # number of writebacks (Count)
system.cpu.icache.writebacks::total              1190                       # number of writebacks (Count)
system.cpu.icache.demandMshrHits::cpu.inst          314                       # number of demand (read+write) MSHR hits (Count)
system.cpu.icache.demandMshrHits::total           314                       # number of demand (read+write) MSHR hits (Count)
system.cpu.icache.overallMshrHits::cpu.inst          314                       # number of overall MSHR hits (Count)
system.cpu.icache.overallMshrHits::total          314                       # number of overall MSHR hits (Count)
system.cpu.icache.demandMshrMisses::cpu.inst         1254                       # number of demand (read+write) MSHR misses (Count)
system.cpu.icache.demandMshrMisses::total         1254                       # number of demand (read+write) MSHR misses (Count)
system.cpu.icache.overallMshrMisses::cpu.inst         1254                       # number of overall MSHR misses (Count)
system.cpu.icache.overallMshrMisses::total         1254                       # number of overall MSHR misses (Count)
system.cpu.icache.demandMshrMissLatency::cpu.inst     57692498                       # number of demand (read+write) MSHR miss ticks (Tick)
system.cpu.icache.demandMshrMissLatency::total     57692498                       # number of demand (read+write) MSHR miss ticks (Tick)
system.cpu.icache.overallMshrMissLatency::cpu.inst     57692498                       # number of overall MSHR miss ticks (Tick)
system.cpu.icache.overallMshrMissLatency::total     57692498                       # number of overall MSHR miss ticks (Tick)
system.cpu.icache.demandMshrMissRate::cpu.inst     0.002799                       # mshr miss ratio for demand accesses (Ratio)
system.cpu.icache.demandMshrMissRate::total     0.002799                       # mshr miss ratio for demand accesses (Ratio)
system.cpu.icache.overallMshrMissRate::cpu.inst     0.002799                       # mshr miss ratio for overall accesses (Ratio)
system.cpu.icache.overallMshrMissRate::total     0.002799                       # mshr miss ratio for overall accesses (Ratio)
system.cpu.icache.demandAvgMshrMissLatency::cpu.inst 46006.776715                       # average overall mshr miss latency ((Cycle/Count))
system.cpu.icache.demandAvgMshrMissLatency::total 46006.776715                       # average overall mshr miss latency ((Cycle/Count))
system.cpu.icache.overallAvgMshrMissLatency::cpu.inst 46006.776715                       # average overall mshr miss latency ((Cycle/Count))
system.cpu.icache.overallAvgMshrMissLatency::total 46006.776715                       # average overall mshr miss latency ((Cycle/Count))
system.cpu.icache.replacements                   1190                       # number of replacements (Count)
system.cpu.icache.ReadReq.hits::cpu.inst       446381                       # number of ReadReq hits (Count)
system.cpu.icache.ReadReq.hits::total          446381                       # number of ReadReq hits (Count)
system.cpu.icache.ReadReq.misses::cpu.inst         1568                       # number of ReadReq misses (Count)
system.cpu.icache.ReadReq.misses::total          1568                       # number of ReadReq misses (Count)
system.cpu.icache.ReadReq.missLatency::cpu.inst     74385998                       # number of ReadReq miss ticks (Tick)
system.cpu.icache.ReadReq.missLatency::total     74385998                       # number of ReadReq miss ticks (Tick)
system.cpu.icache.ReadReq.accesses::cpu.inst       447949                       # number of ReadReq accesses(hits+misses) (Count)
system.cpu.icache.ReadReq.accesses::total       447949                       # number of ReadReq accesses(hits+misses) (Count)
system.cpu.icache.ReadReq.missRate::cpu.inst     0.003500                       # miss rate for ReadReq accesses (Ratio)
system.cpu.icache.ReadReq.missRate::total     0.003500                       # miss rate for ReadReq accesses (Ratio)
system.cpu.icache.ReadReq.avgMissLatency::cpu.inst 47440.049745                       # average ReadReq miss latency ((Tick/Count))
system.cpu.icache.ReadReq.avgMissLatency::total 47440.049745                       # average ReadReq miss latency ((Tick/Count))
system.cpu.icache.ReadReq.mshrHits::cpu.inst          314                       # number of ReadReq MSHR hits (Count)
system.cpu.icache.ReadReq.mshrHits::total          314                       # number of ReadReq MSHR hits (Count)
system.cpu.icache.ReadReq.mshrMisses::cpu.inst         1254                       # number of ReadReq MSHR misses (Count)
system.cpu.icache.ReadReq.mshrMisses::total         1254                       # number of ReadReq MSHR misses (Count)
system.cpu.icache.ReadReq.mshrMissLatency::cpu.inst     57692498                       # number of ReadReq MSHR miss ticks (Tick)
system.cpu.icache.ReadReq.mshrMissLatency::total     57692498                       # number of ReadReq MSHR miss ticks (Tick)
system.cpu.icache.ReadReq.mshrMissRate::cpu.inst     0.002799                       # mshr miss rate for ReadReq accesses (Ratio)
system.cpu.icache.ReadReq.mshrMissRate::total     0.002799                       # mshr miss rate for ReadReq accesses (Ratio)
system.cpu.icache.ReadReq.avgMshrMissLatency::cpu.inst 46006.776715                       # average ReadReq mshr miss latency ((Tick/Count))
system.cpu.icache.ReadReq.avgMshrMissLatency::total 46006.776715                       # average ReadReq mshr miss latency ((Tick/Count))
system.cpu.icache.power_state.pwrStateResidencyTicks::UNDEFINED 146570026000                       # Cumulative time (in ticks) in various power states (Tick)
system.cpu.icache.tags.tagsInUse            63.531337                       # Average ticks per tags in use ((Tick/Count))
system.cpu.icache.tags.totalRefs               447635                       # Total number of references to valid blocks. (Count)
system.cpu.icache.tags.sampledRefs               1254                       # Sample count of references to valid blocks. (Count)
system.cpu.icache.tags.avgRefs             356.965710                       # Average number of references to valid blocks. ((Count/Count))
system.cpu.icache.tags.warmupTick               87500                       # The tick when the warmup percentage was hit. (Tick)
system.cpu.icache.tags.occupancies::cpu.inst    63.531337                       # Average occupied blocks per tick, per requestor ((Count/Tick))
system.cpu.icache.tags.avgOccs::cpu.inst     0.992677                       # Average percentage of cache occupancy ((Ratio/Tick))
system.cpu.icache.tags.avgOccs::total        0.992677                       # Average percentage of cache occupancy ((Ratio/Tick))
system.cpu.icache.tags.occupanciesTaskId::1024           64                       # Occupied blocks per task id (Count)
system.cpu.icache.tags.ageTaskId_1024::3            1                       # Occupied blocks per task id, per block age (Count)
system.cpu.icache.tags.ageTaskId_1024::4           63                       # Occupied blocks per task id, per block age (Count)
system.cpu.icache.tags.ratioOccsTaskId::1024            1                       # Ratio of occupied blocks and all blocks, per task id (Ratio)
system.cpu.icache.tags.tagAccesses             897152                       # Number of tag accesses (Count)
system.cpu.icache.tags.dataAccesses            897152                       # Number of data accesses (Count)
system.cpu.icache.tags.power_state.pwrStateResidencyTicks::UNDEFINED 146570026000                       # Cumulative time (in ticks) in various power states (Tick)
system.cpu.itb_walker_cache.blockedCycles::no_mshrs            0                       # number of cycles access was blocked (Cycle)
system.cpu.itb_walker_cache.blockedCycles::no_targets            0                       # number of cycles access was blocked (Cycle)
system.cpu.itb_walker_cache.blockedCauses::no_mshrs            0                       # number of times access was blocked (Count)
system.cpu.itb_walker_cache.blockedCauses::no_targets            0                       # number of times access was blocked (Count)
system.cpu.itb_walker_cache.avgBlocked::no_mshrs          nan                       # average number of cycles each access was blocked ((Cycle/Count))
system.cpu.itb_walker_cache.avgBlocked::no_targets          nan                       # average number of cycles each access was blocked ((Cycle/Count))
system.cpu.itb_walker_cache.replacements            0                       # number of replacements (Count)
system.cpu.itb_walker_cache.power_state.pwrStateResidencyTicks::UNDEFINED 146570026000                       # Cumulative time (in ticks) in various power states (Tick)
system.cpu.itb_walker_cache.tags.tagsInUse            0                       # Average ticks per tags in use ((Tick/Count))
system.cpu.itb_walker_cache.tags.totalRefs            0                       # Total number of references to valid blocks. (Count)
system.cpu.itb_walker_cache.tags.sampledRefs            0                       # Sample count of references to valid blocks. (Count)
system.cpu.itb_walker_cache.tags.avgRefs          nan                       # Average number of references to valid blocks. ((Count/Count))
system.cpu.itb_walker_cache.tags.warmupTick            0                       # The tick when the warmup percentage was hit. (Tick)
system.cpu.itb_walker_cache.tags.tagAccesses            0                       # Number of tag accesses (Count)
system.cpu.itb_walker_cache.tags.dataAccesses            0                       # Number of data accesses (Count)
system.cpu.itb_walker_cache.tags.power_state.pwrStateResidencyTicks::UNDEFINED 146570026000                       # Cumulative time (in ticks) in various power states (Tick)
system.cpu.lsq0.forwLoads                      154323                       # Number of loads that had data forwarded from stores (Count)
system.cpu.lsq0.squashedLoads                   54404                       # Number of loads squashed (Count)
system.cpu.lsq0.ignoredResponses                   74                       # Number of memory responses ignored because the instruction is squashed (Count)
system.cpu.lsq0.memOrderViolation                 169                       # Number of memory ordering violations (Count)
system.cpu.lsq0.squashedStores                1463413                       # Number of stores squashed (Count)
system.cpu.lsq0.rescheduledLoads                    0                       # Number of loads that were rescheduled (Count)
system.cpu.lsq0.blockedByCache                    637                       # Number of times an access to memory failed due to the cache being blocked (Count)
system.cpu.lsq0.loadToUse::samples            1305861                       # Distribution of cycle latency between the first time a load is issued and its completion (Unspecified)
system.cpu.lsq0.loadToUse::mean              3.670600                       # Distribution of cycle latency between the first time a load is issued and its completion (Unspecified)
system.cpu.lsq0.loadToUse::stdev            10.333928                       # Distribution of cycle latency between the first time a load is issued and its completion (Unspecified)
system.cpu.lsq0.loadToUse::0-9                1299286     99.50%     99.50% # Distribution of cycle latency between the first time a load is issued and its completion (Unspecified)
system.cpu.lsq0.loadToUse::10-19                  646      0.05%     99.55% # Distribution of cycle latency between the first time a load is issued and its completion (Unspecified)
system.cpu.lsq0.loadToUse::20-29                 1992      0.15%     99.70% # Distribution of cycle latency between the first time a load is issued and its completion (Unspecified)
system.cpu.lsq0.loadToUse::30-39                   30      0.00%     99.70% # Distribution of cycle latency between the first time a load is issued and its completion (Unspecified)
system.cpu.lsq0.loadToUse::40-49                   30      0.00%     99.70% # Distribution of cycle latency between the first time a load is issued and its completion (Unspecified)
system.cpu.lsq0.loadToUse::50-59                   80      0.01%     99.71% # Distribution of cycle latency between the first time a load is issued and its completion (Unspecified)
system.cpu.lsq0.loadToUse::60-69                   68      0.01%     99.71% # Distribution of cycle latency between the first time a load is issued and its completion (Unspecified)
system.cpu.lsq0.loadToUse::70-79                    7      0.00%     99.71% # Distribution of cycle latency between the first time a load is issued and its completion (Unspecified)
system.cpu.lsq0.loadToUse::80-89                    5      0.00%     99.72% # Distribution of cycle latency between the first time a load is issued and its completion (Unspecified)
system.cpu.lsq0.loadToUse::90-99                   25      0.00%     99.72% # Distribution of cycle latency between the first time a load is issued and its completion (Unspecified)
system.cpu.lsq0.loadToUse::100-109                785      0.06%     99.78% # Distribution of cycle latency between the first time a load is issued and its completion (Unspecified)
system.cpu.lsq0.loadToUse::110-119               1304      0.10%     99.88% # Distribution of cycle latency between the first time a load is issued and its completion (Unspecified)
system.cpu.lsq0.loadToUse::120-129                 96      0.01%     99.88% # Distribution of cycle latency between the first time a load is issued and its completion (Unspecified)
system.cpu.lsq0.loadToUse::130-139                306      0.02%     99.91% # Distribution of cycle latency between the first time a load is issued and its completion (Unspecified)
[...]
system.mem_ctrls.dram.perBankWrBursts::9       243125                       # Per bank write bursts (Count)
system.mem_ctrls.dram.perBankWrBursts::10       243080                       # Per bank write bursts (Count)
system.mem_ctrls.dram.perBankWrBursts::11       242881                       # Per bank write bursts (Count)
system.mem_ctrls.dram.perBankWrBursts::12       242964                       # Per bank write bursts (Count)
system.mem_ctrls.dram.perBankWrBursts::13       243023                       # Per bank write bursts (Count)
system.mem_ctrls.dram.perBankWrBursts::14       243090                       # Per bank write bursts (Count)
system.mem_ctrls.dram.perBankWrBursts::15       243138                       # Per bank write bursts (Count)
system.mem_ctrls.dram.totQLat            115850254750                       # Total ticks spent queuing (Tick)
system.mem_ctrls.dram.totBusLat           19614965000                       # Total ticks spent in databus transfers (Tick)
system.mem_ctrls.dram.totMemAccLat       189406373500                       # Total ticks spent from burst creation until serviced by the DRAM (Tick)
system.mem_ctrls.dram.avgQLat                29531.09                       # Average queueing delay per DRAM burst ((Tick/Count))
system.mem_ctrls.dram.avgBusLat               5000.00                       # Average bus latency per DRAM burst ((Tick/Count))
system.mem_ctrls.dram.avgMemAccLat           48281.09                       # Average memory access latency per DRAM burst ((Tick/Count))
system.mem_ctrls.dram.readRowHits             3576240                       # Number of row buffer hits during reads (Count)
system.mem_ctrls.dram.writeRowHits            3613963                       # Number of row buffer hits during writes (Count)
system.mem_ctrls.dram.readRowHitRate            91.16                       # Row buffer hit rate for reads (Ratio)
system.mem_ctrls.dram.writeRowHitRate           92.91                       # Row buffer hit rate for writes (Ratio)
system.mem_ctrls.dram.bytesPerActivate::samples       622383                       # Bytes accessed per row activation (Byte)
system.mem_ctrls.dram.bytesPerActivate::mean   803.371866                       # Bytes accessed per row activation (Byte)
system.mem_ctrls.dram.bytesPerActivate::gmean   661.411074                       # Bytes accessed per row activation (Byte)
system.mem_ctrls.dram.bytesPerActivate::stdev   334.351116                       # Bytes accessed per row activation (Byte)
system.mem_ctrls.dram.bytesPerActivate::0-127        17525      2.82%      2.82% # Bytes accessed per row activation (Byte)
system.mem_ctrls.dram.bytesPerActivate::128-255        66136     10.63%     13.44% # Bytes accessed per row activation (Byte)
system.mem_ctrls.dram.bytesPerActivate::256-383        24905      4.00%     17.44% # Bytes accessed per row activation (Byte)
system.mem_ctrls.dram.bytesPerActivate::384-511        24402      3.92%     21.36% # Bytes accessed per row activation (Byte)
system.mem_ctrls.dram.bytesPerActivate::512-639        25526      4.10%     25.47% # Bytes accessed per row activation (Byte)
system.mem_ctrls.dram.bytesPerActivate::640-767         2636      0.42%     25.89% # Bytes accessed per row activation (Byte)
system.mem_ctrls.dram.bytesPerActivate::768-895        25785      4.14%     30.03% # Bytes accessed per row activation (Byte)
system.mem_ctrls.dram.bytesPerActivate::896-1023       131187     21.08%     51.11% # Bytes accessed per row activation (Byte)
system.mem_ctrls.dram.bytesPerActivate::1024-1151       304281     48.89%    100.00% # Bytes accessed per row activation (Byte)
system.mem_ctrls.dram.bytesPerActivate::total       622383                       # Bytes accessed per row activation (Byte)
system.mem_ctrls.dram.bytesRead             251071552                       # Total number of bytes read from DRAM (Byte)
system.mem_ctrls.dram.bytesWritten          248934016                       # Total number of bytes written to DRAM (Byte)
system.mem_ctrls.dram.avgRdBW             1712.980197                       # Average DRAM read bandwidth in MiBytes/s ((Byte/Second))
system.mem_ctrls.dram.avgWrBW             1698.396478                       # Average DRAM write bandwidth in MiBytes/s ((Byte/Second))
system.mem_ctrls.dram.peakBW                 12800.00                       # Theoretical peak bandwidth in MiByte/s ((Byte/Second))
system.mem_ctrls.dram.busUtil                   26.65                       # Data bus utilization in percentage (Ratio)
system.mem_ctrls.dram.busUtilRead               13.38                       # Data bus utilization in percentage for reads (Ratio)
system.mem_ctrls.dram.busUtilWrite              13.27                       # Data bus utilization in percentage for writes (Ratio)
system.mem_ctrls.dram.pageHitRate               92.03                       # Row buffer hit rate, read and write combined (Ratio)
system.mem_ctrls.dram.power_state.pwrStateResidencyTicks::UNDEFINED 146570026000                       # Cumulative time (in ticks) in various power states (Tick)
system.mem_ctrls.dram.rank0.actEnergy      2222517780                       # Energy for activate commands per rank (pJ) (Joule)
system.mem_ctrls.dram.rank0.preEnergy      1181296215                       # Energy for precharge commands per rank (pJ) (Joule)
system.mem_ctrls.dram.rank0.readEnergy    14007466200                       # Energy for read commands per rank (pJ) (Joule)
system.mem_ctrls.dram.rank0.writeEnergy   10153949220                       # Energy for write commands per rank (pJ) (Joule)
system.mem_ctrls.dram.rank0.refreshEnergy 11569983360.000002                       # Energy for refresh commands per rank (pJ) (Joule)
system.mem_ctrls.dram.rank0.actBackEnergy  37604916660                       # Energy for active background per rank (pJ) (Joule)
system.mem_ctrls.dram.rank0.preBackEnergy  24615591840                       # Energy for precharge background per rank (pJ) (Joule)
system.mem_ctrls.dram.rank0.actPowerDownEnergy            0                       # Energy for active power-down per rank (pJ) (Joule)
system.mem_ctrls.dram.rank0.prePowerDownEnergy            0                       # Energy for precharge power-down per rank (pJ) (Joule)
system.mem_ctrls.dram.rank0.selfRefreshEnergy            0                       # Energy for self refresh per rank (pJ) (Joule)
system.mem_ctrls.dram.rank0.totalEnergy  101355721275                       # Total energy per rank (pJ) (Joule)
system.mem_ctrls.dram.rank0.averagePower   691.517386                       # Core power per rank (mW) (Watt)
system.mem_ctrls.dram.rank0.totalIdleTime            0                       # Total Idle time Per DRAM Rank (Tick)
system.mem_ctrls.dram.rank0.pwrStateTime::IDLE  62440966000                       # Time in different power states (Tick)
system.mem_ctrls.dram.rank0.pwrStateTime::REF   4894240000                       # Time in different power states (Tick)
system.mem_ctrls.dram.rank0.pwrStateTime::SREF            0                       # Time in different power states (Tick)
system.mem_ctrls.dram.rank0.pwrStateTime::PRE_PDN            0                       # Time in different power states (Tick)
system.mem_ctrls.dram.rank0.pwrStateTime::ACT  79234820000                       # Time in different power states (Tick)
system.mem_ctrls.dram.rank0.pwrStateTime::ACT_PDN            0                       # Time in different power states (Tick)
system.mem_ctrls.dram.rank1.actEnergy      2221303980                       # Energy for activate commands per rank (pJ) (Joule)
system.mem_ctrls.dram.rank1.preEnergy      1180647270                       # Energy for precharge commands per rank (pJ) (Joule)
system.mem_ctrls.dram.rank1.readEnergy    14002703820                       # Energy for read commands per rank (pJ) (Joule)
system.mem_ctrls.dram.rank1.writeEnergy   10149731460                       # Energy for write commands per rank (pJ) (Joule)
system.mem_ctrls.dram.rank1.refreshEnergy 11569983360.000002                       # Energy for refresh commands per rank (pJ) (Joule)
system.mem_ctrls.dram.rank1.actBackEnergy  37898973960                       # Energy for active background per rank (pJ) (Joule)
system.mem_ctrls.dram.rank1.preBackEnergy  24367964640                       # Energy for precharge background per rank (pJ) (Joule)
system.mem_ctrls.dram.rank1.actPowerDownEnergy            0                       # Energy for active power-down per rank (pJ) (Joule)
system.mem_ctrls.dram.rank1.prePowerDownEnergy            0                       # Energy for precharge power-down per rank (pJ) (Joule)
system.mem_ctrls.dram.rank1.selfRefreshEnergy            0                       # Energy for self refresh per rank (pJ) (Joule)
system.mem_ctrls.dram.rank1.totalEnergy  101391308490                       # Total energy per rank (pJ) (Joule)
system.mem_ctrls.dram.rank1.averagePower   691.760186                       # Core power per rank (mW) (Watt)
system.mem_ctrls.dram.rank1.totalIdleTime            0                       # Total Idle time Per DRAM Rank (Tick)
system.mem_ctrls.dram.rank1.pwrStateTime::IDLE  61821368750                       # Time in different power states (Tick)
system.mem_ctrls.dram.rank1.pwrStateTime::REF   4894240000                       # Time in different power states (Tick)
system.mem_ctrls.dram.rank1.pwrStateTime::SREF            0                       # Time in different power states (Tick)
system.mem_ctrls.dram.rank1.pwrStateTime::PRE_PDN            0                       # Time in different power states (Tick)
system.mem_ctrls.dram.rank1.pwrStateTime::ACT  79854417250                       # Time in different power states (Tick)
system.mem_ctrls.dram.rank1.pwrStateTime::ACT_PDN            0                       # Time in different power states (Tick)
system.mem_ctrls.power_state.pwrStateResidencyTicks::UNDEFINED 146570026000                       # Cumulative time (in ticks) in various power states (Tick)
system.membus.transDist::ReadResp                 637                       # Transaction distribution (Count)
system.membus.transDist::WritebackDirty       3889621                       # Transaction distribution (Count)
system.membus.transDist::CleanEvict               540                       # Transaction distribution (Count)
system.membus.transDist::ReadExReq            3922356                       # Transaction distribution (Count)
system.membus.transDist::ReadExResp           3922356                       # Transaction distribution (Count)
system.membus.transDist::ReadSharedReq            637                       # Transaction distribution (Count)
system.membus.pktCount_system.l2.mem_side_port::system.mem_ctrls.port     11736147                       # Packet count per connected requestor and responder (Count)
system.membus.pktCount::total                11736147                       # Packet count per connected requestor and responder (Count)
system.membus.pktSize_system.l2.mem_side_port::system.mem_ctrls.port    500007296                       # Cumulative packet size per connected requestor and responder (Byte)
system.membus.pktSize::total                500007296                       # Cumulative packet size per connected requestor and responder (Byte)
system.membus.snoops                                0                       # Total snoops (Count)
system.membus.snoopTraffic                          0                       # Total snoop traffic (Byte)
system.membus.snoopFanout::samples            3922993                       # Request fanout histogram (Count)
system.membus.snoopFanout::mean                     0                       # Request fanout histogram (Count)
system.membus.snoopFanout::stdev                    0                       # Request fanout histogram (Count)
system.membus.snoopFanout::underflows               0      0.00%      0.00% # Request fanout histogram (Count)
system.membus.snoopFanout::0                  3922993    100.00%    100.00% # Request fanout histogram (Count)
system.membus.snoopFanout::1                        0      0.00%    100.00% # Request fanout histogram (Count)
system.membus.snoopFanout::overflows                0      0.00%    100.00% # Request fanout histogram (Count)
system.membus.snoopFanout::min_value                0                       # Request fanout histogram (Count)
system.membus.snoopFanout::max_value                0                       # Request fanout histogram (Count)
system.membus.snoopFanout::total              3922993                       # Request fanout histogram (Count)
system.membus.power_state.pwrStateResidencyTicks::UNDEFINED 146570026000                       # Cumulative time (in ticks) in various power states (Tick)
system.membus.reqLayer0.occupancy         24999863500                       # Layer occupancy (ticks) (Tick)
system.membus.reqLayer0.utilization               0.2                       # Layer utilization (Ratio)
system.membus.respLayer1.occupancy        20100609000                       # Layer occupancy (ticks) (Tick)
system.membus.respLayer1.utilization              0.1                       # Layer utilization (Ratio)
system.membus.snoop_filter.totRequests        7813154                       # Total number of requests made to the snoop filter. (Count)
system.membus.snoop_filter.hitSingleRequests      3890161                       # Number of requests hitting in the snoop filter with a single holder of the requested data. (Count)
system.membus.snoop_filter.hitMultiRequests            0                       # Number of requests hitting in the snoop filter with multiple (>1) holders of the requested data. (Count)
system.membus.snoop_filter.totSnoops                0                       # Total number of snoops made to the snoop filter. (Count)
system.membus.snoop_filter.hitSingleSnoops            0                       # Number of snoops hitting in the snoop filter with a single holder of the requested data. (Count)
system.membus.snoop_filter.hitMultiSnoops            0                       # Number of snoops hitting in the snoop filter with multiple (>1) holders of the requested data. (Count)
system.tol2bus.transDist::ReadResp               3179                       # Transaction distribution (Count)
system.tol2bus.transDist::WritebackDirty      7813460                       # Transaction distribution (Count)
system.tol2bus.transDist::WritebackClean         1190                       # Transaction distribution (Count)
system.tol2bus.transDist::CleanEvict             2457                       # Transaction distribution (Count)
system.tol2bus.transDist::ReadExReq           3923753                       # Transaction distribution (Count)
system.tol2bus.transDist::ReadExResp          3923752                       # Transaction distribution (Count)
system.tol2bus.transDist::ReadCleanReq           1254                       # Transaction distribution (Count)
system.tol2bus.transDist::ReadSharedReq          1925                       # Transaction distribution (Count)
system.tol2bus.pktCount_system.cpu.icache.mem_side_port::system.l2.cpu_side_port         3698                       # Packet count per connected requestor and responder (Count)
system.tol2bus.pktCount_system.cpu.dcache.mem_side_port::system.l2.cpu_side_port     11776968                       # Packet count per connected requestor and responder (Count)
system.tol2bus.pktCount::total               11780666                       # Packet count per connected requestor and responder (Count)
system.tol2bus.pktSize_system.cpu.icache.mem_side_port::system.l2.cpu_side_port       156416                       # Cumulative packet size per connected requestor and responder (Byte)
system.tol2bus.pktSize_system.cpu.dcache.mem_side_port::system.l2.cpu_side_port    502369024                       # Cumulative packet size per connected requestor and responder (Byte)
system.tol2bus.pktSize::total               502525440                       # Cumulative packet size per connected requestor and responder (Byte)
system.tol2bus.snoops                         3890304                       # Total snoops (Count)
system.tol2bus.snoopTraffic                 248935744                       # Total snoop traffic (Byte)
system.tol2bus.snoopFanout::samples           7817236                       # Request fanout histogram (Count)
system.tol2bus.snoopFanout::mean             0.000018                       # Request fanout histogram (Count)
system.tol2bus.snoopFanout::stdev            0.004292                       # Request fanout histogram (Count)
system.tol2bus.snoopFanout::underflows              0      0.00%      0.00% # Request fanout histogram (Count)
system.tol2bus.snoopFanout::0                 7817092    100.00%    100.00% # Request fanout histogram (Count)
system.tol2bus.snoopFanout::1                     144      0.00%    100.00% # Request fanout histogram (Count)
system.tol2bus.snoopFanout::2                       0      0.00%    100.00% # Request fanout histogram (Count)
system.tol2bus.snoopFanout::3                       0      0.00%    100.00% # Request fanout histogram (Count)
system.tol2bus.snoopFanout::4                       0      0.00%    100.00% # Request fanout histogram (Count)
system.tol2bus.snoopFanout::overflows               0      0.00%    100.00% # Request fanout histogram (Count)
system.tol2bus.snoopFanout::min_value               0                       # Request fanout histogram (Count)
system.tol2bus.snoopFanout::max_value               1                       # Request fanout histogram (Count)
system.tol2bus.snoopFanout::total             7817236                       # Request fanout histogram (Count)
system.tol2bus.power_state.pwrStateResidencyTicks::UNDEFINED 146570026000                       # Cumulative time (in ticks) in various power states (Tick)
system.tol2bus.reqLayer0.occupancy         7851896500                       # Layer occupancy (ticks) (Tick)
system.tol2bus.reqLayer0.utilization              0.1                       # Layer utilization (Ratio)
system.tol2bus.respLayer0.occupancy           1881000                       # Layer occupancy (ticks) (Tick)
system.tol2bus.respLayer0.utilization             0.0                       # Layer utilization (Ratio)
system.tol2bus.respLayer1.occupancy        5888515500                       # Layer occupancy (ticks) (Tick)
system.tol2bus.respLayer1.utilization             0.0                       # Layer utilization (Ratio)
system.tol2bus.snoop_filter.totRequests       7853735                       # Total number of requests made to the snoop filter. (Count)
system.tol2bus.snoop_filter.hitSingleRequests      3926803                       # Number of requests hitting in the snoop filter with a single holder of the requested data. (Count)
system.tol2bus.snoop_filter.hitMultiRequests            1                       # Number of requests hitting in the snoop filter with multiple (>1) holders of the requested data. (Count)
system.tol2bus.snoop_filter.totSnoops             143                       # Total number of snoops made to the snoop filter. (Count)
system.tol2bus.snoop_filter.hitSingleSnoops          143                       # Number of snoops hitting in the snoop filter with a single holder of the requested data. (Count)
system.tol2bus.snoop_filter.hitMultiSnoops            0                       # Number of snoops hitting in the snoop filter with multiple (>1) holders of the requested data. (Count)
system.voltage_domain.voltage                       1                       # Voltage in Volts (Volt)
system.workload.inst.arm                            0                       # number of arm instructions executed (Count)
system.workload.inst.quiesce                        0                       # number of quiesce instructions executed (Count)

---------- End Simulation Statistics   ----------
