
---------- Begin Simulation Statistics ----------
simSeconds                                   0.147228                       # Number of seconds simulated (Second)
simTicks                                 147227704000                       # Number of ticks simulated (Tick)
finalTick                                147227704000                       # Number of ticks from beginning of simulation (restored from checkpoints and never reset) (Tick)
simFreq                                  1000000000000                       # The number of ticks per simulated second ((Tick/Second))
hostSeconds                                    979.44                       # Real time elapsed on the host (Second)
hostTickRate                                150318966                       # The number of ticks simulated per host second (ticks/s) ((Tick/Second))
hostMemory                                     710688                       # Number of bytes of host memory used (Byte)
simInsts                                    100000001                       # Number of instructions simulated (Count)
simOps                                      100000001                       # Number of ops (including micro ops) simulated (Count)
hostInstRate                                   102100                       # Simulator instruction rate (inst/s) ((Count/Second))
hostOpRate                                     102100                       # Simulator op (including micro ops) rate (op/s) ((Count/Second))
system.clk_domain.clock                          1000                       # Clock period in ticks (Tick)
system.cpu.numCycles                        294455409                       # Number of cpu cycles simulated (Cycle)
system.cpu.numWorkItemsStarted                      0                       # Number of work items this cpu started (Count)
system.cpu.numWorkItemsCompleted                    0                       # Number of work items this cpu completed (Count)
system.cpu.instsAdded                       102411648                       # Number of instructions added to the IQ (excludes non-spec) (Count)
system.cpu.nonSpecInstsAdded                       29                       # Number of non-speculative instructions added to the IQ (Count)
system.cpu.instsIssued                      102315603                       # Number of instructions issued (Count)
system.cpu.squashedInstsIssued                    443                       # Number of squashed instructions issued (Count)
system.cpu.squashedInstsExamined              2411676                       # Number of squashed instructions iterated over during squash; mainly for profiling (Count)
system.cpu.squashedOperandsExamined           1660219                       # Number of squashed operands that are examined and possibly removed from graph (Count)
system.cpu.squashedNonSpecRemoved                  13                       # Number of squashed non-spec instructions that were removed (Count)
system.cpu.numIssuedDist::samples           294416510                       # Number of insts issued each cycle (Count)
system.cpu.numIssuedDist::mean               0.347520                       # Number of insts issued each cycle (Count)
system.cpu.numIssuedDist::stdev              1.254531                       # Number of insts issued each cycle (Count)
system.cpu.numIssuedDist::underflows                0      0.00%      0.00% # Number of insts issued each cycle (Count)
system.cpu.numIssuedDist::0                 264090562     89.70%     89.70% # Number of insts issued each cycle (Count)
system.cpu.numIssuedDist::1                   9517909      3.23%     92.93% # Number of insts issued each cycle (Count)
system.cpu.numIssuedDist::2                   7524747      2.56%     95.49% # Number of insts issued each cycle (Count)
system.cpu.numIssuedDist::3                    240723      0.08%     95.57% # Number of insts issued each cycle (Count)
system.cpu.numIssuedDist::4                    288633      0.10%     95.67% # Number of insts issued each cycle (Count)
system.cpu.numIssuedDist::5                    885096      0.30%     95.97% # Number of insts issued each cycle (Count)
system.cpu.numIssuedDist::6                  11679530      3.97%     99.94% # Number of insts issued each cycle (Count)
system.cpu.numIssuedDist::7                    145641      0.05%     99.99% # Number of insts issued each cycle (Count)
system.cpu.numIssuedDist::8                     43669      0.01%    100.00% # Number of insts issued each cycle (Count)
system.cpu.numIssuedDist::overflows                 0      0.00%    100.00% # Number of insts issued each cycle (Count)
system.cpu.numIssuedDist::min_value                 0                       # Number of insts issued each cycle (Count)
system.cpu.numIssuedDist::max_value                 8                       # Number of insts issued each cycle (Count)
system.cpu.numIssuedDist::total             294416510                       # Number of insts issued each cycle (Count)
system.cpu.statFuBusy::No_OpClass                   0      0.00%      0.00% # attempts to use FU when none available (Count)
system.cpu.statFuBusy::IntAlu                   38992     78.89%     78.89% # attempts to use FU when none available (Count)
system.cpu.statFuBusy::IntMult                      0      0.00%     78.89% # attempts to use FU when none available (Count)
system.cpu.statFuBusy::IntDiv                       0      0.00%     78.89% # attempts to use FU when none available (Count)
system.cpu.statFuBusy::FloatAdd                     0      0.00%     78.89% # attempts to use FU when none available (Count)
system.cpu.statFuBusy::FloatCmp                     0      0.00%     78.89% # attempts to use FU when none available (Count)
system.cpu.statFuBusy::FloatCvt                     0      0.00%     78.89% # attempts to use FU when none available (Count)
system.cpu.statFuBusy::FloatMult                    0      0.00%     78.89% # attempts to use FU when none available (Count)
system.cpu.statFuBusy::FloatMultAcc                 0      0.00%     78.89% # attempts to use FU when none available (Count)
system.cpu.statFuBusy::FloatDiv                     0      0.00%     78.89% # attempts to use FU when none available (Count)
system.cpu.statFuBusy::FloatMisc                    0      0.00%     78.89% # attempts to use FU when none available (Count)
system.cpu.statFuBusy::FloatSqrt                    0      0.00%     78.89% # attempts to use FU when none available (Count)
system.cpu.statFuBusy::SimdAdd                      0      0.00%     78.89% # attempts to use FU when none available (Count)
system.cpu.statFuBusy::SimdAddAcc                   0      0.00%     78.89% # attempts to use FU when none available (Count)
system.cpu.statFuBusy::SimdAlu                      0      0.00%     78.89% # attempts to use FU when none available (Count)
system.cpu.statFuBusy::SimdCmp                      0      0.00%     78.89% # attempts to use FU when none available (Count)
system.cpu.statFuBusy::SimdCvt                      0      0.00%     78.89% # attempts to use FU when none available (Count)
system.cpu.statFuBusy::SimdMisc                     0      0.00%     78.89% # attempts to use FU when none available (Count)
system.cpu.statFuBusy::SimdMult                     0      0.00%     78.89% # attempts to use FU when none available (Count)
system.cpu.statFuBusy::SimdMultAcc                  0      0.00%     78.89% # attempts to use FU when none available (Count)
system.cpu.statFuBusy::SimdShift                    0      0.00%     78.89% # attempts to use FU when none available (Count)
system.cpu.statFuBusy::SimdShiftAcc                 0      0.00%     78.89% # attempts to use FU when none available (Count)
system.cpu.statFuBusy::SimdDiv                      0      0.00%     78.89% # attempts to use FU when none available (Count)
system.cpu.statFuBusy::SimdSqrt                     0      0.00%     78.89% # attempts to use FU when none available (Count)
system.cpu.statFuBusy::SimdFloatAdd                 0      0.00%     78.89% # attempts to use FU when none available (Count)
system.cpu.statFuBusy::SimdFloatAlu                 0      0.00%     78.89% # attempts to use FU when none available (Count)
system.cpu.statFuBusy::SimdFloatCmp                 0      0.00%     78.89% # attempts to use FU when none available (Count)
system.cpu.statFuBusy::SimdFloatCvt                 0      0.00%     78.89% # attempts to use FU when none available (Count)
system.cpu.statFuBusy::SimdFloatDiv                 0      0.00%     78.89% # attempts to use FU when none available (Count)
system.cpu.statFuBusy::SimdFloatMisc                0      0.00%     78.89% # attempts to use FU when none available (Count)
system.cpu.statFuBusy::SimdFloatMult                0      0.00%     78.89% # attempts to use FU when none available (Count)
system.cpu.statFuBusy::SimdFloatMultAcc             0      0.00%     78.89% # attempts to use FU when none available (Count)
system.cpu.statFuBusy::SimdFloatSqrt                0      0.00%     78.89% # attempts to use FU when none available (Count)
system.cpu.statFuBusy::SimdReduceAdd                0      0.00%     78.89% # attempts to use FU when none available (Count)
system.cpu.statFuBusy::SimdReduceAlu                0      0.00%     78.89% # attempts to use FU when none available (Count)
system.cpu.statFuBusy::SimdReduceCmp                0      0.00%     78.89% # attempts to use FU when none available (Count)
system.cpu.statFuBusy::SimdFloatReduceAdd            0      0.00%     78.89% # attempts to use FU when none available (Count)
system.cpu.statFuBusy::SimdFloatReduceCmp            0      0.00%     78.89% # attempts to use FU when none available (Count)
system.cpu.statFuBusy::SimdAes                      0      0.00%     78.89% # attempts to use FU when none available (Count)
system.cpu.statFuBusy::SimdAesMix                   0      0.00%     78.89% # attempts to use FU when none available (Count)
system.cpu.statFuBusy::SimdSha1Hash                 0      0.00%     78.89% # attempts to use FU when none available (Count)
system.cpu.statFuBusy::SimdSha1Hash2                0      0.00%     78.89% # attempts to use FU when none available (Count)
system.cpu.statFuBusy::SimdSha256Hash               0      0.00%     78.89% # attempts to use FU when none available (Count)
system.cpu.statFuBusy::SimdSha256Hash2              0      0.00%     78.89% # attempts to use FU when none available (Count)
system.cpu.statFuBusy::SimdShaSigma2                0      0.00%     78.89% # attempts to use FU when none available (Count)
system.cpu.statFuBusy::SimdShaSigma3                0      0.00%     78.89% # attempts to use FU when none available (Count)
system.cpu.statFuBusy::SimdPredAlu                  0      0.00%     78.89% # attempts to use FU when none available (Count)
system.cpu.statFuBusy::MemRead                   9736     19.70%     98.59% # attempts to use FU when none available (Count)
system.cpu.statFuBusy::MemWrite                   696      1.41%    100.00% # attempts to use FU when none available (Count)
system.cpu.statFuBusy::FloatMemRead                 0      0.00%    100.00% # attempts to use FU when none available (Count)
system.cpu.statFuBusy::FloatMemWrite                0      0.00%    100.00% # attempts to use FU when none available (Count)
system.cpu.statFuBusy::IprAccess                    0      0.00%    100.00% # attempts to use FU when none available (Count)
system.cpu.statFuBusy::InstPrefetch                 0      0.00%    100.00% # attempts to use FU when none available (Count)
system.cpu.statIssuedInstType_0::No_OpClass           16      0.00%      0.00% # Number of instructions issued per FU type, per thread (Count)
system.cpu.statIssuedInstType_0::IntAlu      36623901     35.80%     35.80% # Number of instructions issued per FU type, per thread (Count)
system.cpu.statIssuedInstType_0::IntMult            0      0.00%     35.80% # Number of instructions issued per FU type, per thread (Count)
system.cpu.statIssuedInstType_0::IntDiv             0      0.00%     35.80% # Number of instructions issued per FU type, per thread (Count)
system.cpu.statIssuedInstType_0::FloatAdd            0      0.00%     35.80% # Number of instructions issued per FU type, per thread (Count)
system.cpu.statIssuedInstType_0::FloatCmp            0      0.00%     35.80% # Number of instructions issued per FU type, per thread (Count)
system.cpu.statIssuedInstType_0::FloatCvt            0      0.00%     35.80% # Number of instructions issued per FU type, per thread (Count)
system.cpu.statIssuedInstType_0::FloatMult            0      0.00%     35.80% # Number of instructions issued per FU type, per thread (Count)
system.cpu.statIssuedInstType_0::FloatMultAcc            0      0.00%     35.80% # Number of instructions issued per FU type, per thread (Count)
system.cpu.statIssuedInstType_0::FloatDiv            0      0.00%     35.80% # Number of instructions issued per FU type, per thread (Count)
system.cpu.statIssuedInstType_0::FloatMisc            0      0.00%     35.80% # Number of instructions issued per FU type, per thread (Count)
system.cpu.statIssuedInstType_0::FloatSqrt            0      0.00%     35.80% # Number of instructions issued per FU type, per thread (Count)
system.cpu.statIssuedInstType_0::SimdAdd            0      0.00%     35.80% # Number of instructions issued per FU type, per thread (Count)
system.cpu.statIssuedInstType_0::SimdAddAcc            0      0.00%     35.80% # Number of instructions issued per FU type, per thread (Count)
system.cpu.statIssuedInstType_0::SimdAlu            0      0.00%     35.80% # Number of instructions issued per FU type, per thread (Count)
system.cpu.statIssuedInstType_0::SimdCmp            0      0.00%     35.80% # Number of instructions issued per FU type, per thread (Count)
system.cpu.statIssuedInstType_0::SimdCvt            0      0.00%     35.80% # Number of instructions issued per FU type, per thread (Count)
system.cpu.statIssuedInstType_0::SimdMisc            0      0.00%     35.80% # Number of instructions issued per FU type, per thread (Count)
system.cpu.statIssuedInstType_0::SimdMult            0      0.00%     35.80% # Number of instructions issued per FU type, per thread (Count)
system.cpu.statIssuedInstType_0::SimdMultAcc            0      0.00%     35.80% # Number of instructions issued per FU type, per thread (Count)
system.cpu.statIssuedInstType_0::SimdShift            0      0.00%     35.80% # Number of instructions issued per FU type, per thread (Count)
system.cpu.statIssuedInstType_0::SimdShiftAcc            0      0.00%     35.80% # Number of instructions issued per FU type, per thread (Count)
system.cpu.statIssuedInstType_0::SimdDiv            0      0.00%     35.80% # Number of instructions issued per FU type, per thread (Count)
system.cpu.statIssuedInstType_0::SimdSqrt            0      0.00%     35.80% # Number of instructions issued per FU type, per thread (Count)
system.cpu.statIssuedInstType_0::SimdFloatAdd            0      0.00%     35.80% # Number of instructions issued per FU type, per thread (Count)
system.cpu.statIssuedInstType_0::SimdFloatAlu            0      0.00%     35.80% # Number of instructions issued per FU type, per thread (Count)
system.cpu.statIssuedInstType_0::SimdFloatCmp            0      0.00%     35.80% # Number of instructions issued per FU type, per thread (Count)
system.cpu.statIssuedInstType_0::SimdFloatCvt            0      0.00%     35.80% # Number of instructions issued per FU type, per thread (Count)
system.cpu.statIssuedInstType_0::SimdFloatDiv            0      0.00%     35.80% # Number of instructions issued per FU type, per thread (Count)
system.cpu.statIssuedInstType_0::SimdFloatMisc            0      0.00%     35.80% # Number of instructions issued per FU type, per thread (Count)
system.cpu.statIssuedInstType_0::SimdFloatMult            0      0.00%     35.80% # Number of instructions issued per FU type, per thread (Count)
system.cpu.statIssuedInstType_0::SimdFloatMultAcc            0      0.00%     35.80% # Number of instructions issued per FU type, per thread (Count)
system.cpu.statIssuedInstType_0::SimdFloatSqrt            0      0.00%     35.80% # Number of instructions issued per FU type, per thread (Count)
system.cpu.statIssuedInstType_0::SimdReduceAdd            0      0.00%     35.80% # Number of instructions issued per FU type, per thread (Count)
system.cpu.statIssuedInstType_0::SimdReduceAlu            0      0.00%     35.80% # Number of instructions issued per FU type, per thread (Count)
system.cpu.statIssuedInstType_0::SimdReduceCmp            0      0.00%     35.80% # Number of instructions issued per FU type, per thread (Count)
system.cpu.statIssuedInstType_0::SimdFloatReduceAdd            0      0.00%     35.80% # Number of instructions issued per FU type, per thread (Count)
system.cpu.statIssuedInstType_0::SimdFloatReduceCmp            0      0.00%     35.80% # Number of instructions issued per FU type, per thread (Count)
system.cpu.statIssuedInstType_0::SimdAes            0      0.00%     35.80% # Number of instructions issued per FU type, per thread (Count)
system.cpu.statIssuedInstType_0::SimdAesMix            0      0.00%     35.80% # Number of instructions issued per FU type, per thread (Count)
system.cpu.statIssuedInstType_0::SimdSha1Hash            0      0.00%     35.80% # Number of instructions issued per FU type, per thread (Count)
system.cpu.statIssuedInstType_0::SimdSha1Hash2            0      0.00%     35.80% # Number of instructions issued per FU type, per thread (Count)
system.cpu.statIssuedInstType_0::SimdSha256Hash            0      0.00%     35.80% # Number of instructions issued per FU type, per thread (Count)
system.cpu.statIssuedInstType_0::SimdSha256Hash2            0      0.00%     35.80% # Number of instructions issued per FU type, per thread (Count)
system.cpu.statIssuedInstType_0::SimdShaSigma2            0      0.00%     35.80% # Number of instructions issued per FU type, per thread (Count)
system.cpu.statIssuedInstType_0::SimdShaSigma3            0      0.00%     35.80% # Number of instructions issued per FU type, per thread (Count)
system.cpu.statIssuedInstType_0::SimdPredAlu            0      0.00%     35.80% # Number of instructions issued per FU type, per thread (Count)
system.cpu.statIssuedInstType_0::MemRead      1347731      1.32%     37.11% # Number of instructions issued per FU type, per thread (Count)
system.cpu.statIssuedInstType_0::MemWrite     64343955     62.89%    100.00% # Number of instructions issued per FU type, per thread (Count)
system.cpu.statIssuedInstType_0::FloatMemRead            0      0.00%    100.00% # Number of instructions issued per FU type, per thread (Count)
system.cpu.statIssuedInstType_0::FloatMemWrite            0      0.00%    100.00% # Number of instructions issued per FU type, per thread (Count)
system.cpu.statIssuedInstType_0::IprAccess            0      0.00%    100.00% # Number of instructions issued per FU type, per thread (Count)
system.cpu.statIssuedInstType_0::InstPrefetch            0      0.00%    100.00% # Number of instructions issued per FU type, per thread (Count)
system.cpu.statIssuedInstType_0::total      102315603                       # Number of instructions issued per FU type, per thread (Count)
system.cpu.issueRate                         0.347474                       # Inst issue rate ((Count/Cycle))
system.cpu.fuBusy                               49424                       # FU busy when requested (Count)
system.cpu.fuBusyRate                        0.000483                       # FU busy rate (busy events/executed inst) ((Count/Count))
system.cpu.intInstQueueReads                499097583                       # Number of integer instruction queue reads (Count)
system.cpu.intInstQueueWrites               104823504                       # Number of integer instruction queue writes (Count)
system.cpu.intInstQueueWakeupAccesses       101541880                       # Number of integer instruction queue wakeup accesses (Count)
system.cpu.fpInstQueueReads                         0                       # Number of floating instruction queue reads (Count)
system.cpu.fpInstQueueWrites                        0                       # Number of floating instruction queue writes (Count)
system.cpu.fpInstQueueWakeupAccesses                0                       # Number of floating instruction queue wakeup accesses (Count)
system.cpu.vecInstQueueReads                        0                       # Number of vector instruction queue reads (Count)
system.cpu.vecInstQueueWrites                       0                       # Number of vector instruction queue writes (Count)
system.cpu.vecInstQueueWakeupAccesses               0                       # Number of vector instruction queue wakeup accesses (Count)
system.cpu.intAluAccesses                   102365011                       # Number of integer alu accesses (Count)
system.cpu.fpAluAccesses                            0                       # Number of floating point alu accesses (Count)
system.cpu.vecAluAccesses                           0                       # Number of vector alu accesses (Count)
system.cpu.idleCycles                               0                       # Number of cycles IEW is idle (Cycle)
system.cpu.squashCycles                         50177                       # Number of cycles IEW is squashing (Cycle)
system.cpu.blockCycles                         206544                       # Number of cycles IEW is blocking (Cycle)
system.cpu.unblockCycles                         3900                       # Number of cycles IEW is unblocking (Cycle)
system.cpu.dispatchedInsts                  102411677                       # Number of instructions dispatched to IQ (Count)
system.cpu.dispSquashedInsts                     1123                       # Number of squashed instructions skipped by dispatch (Count)
system.cpu.dispLoadInsts                      1359180                       # Number of dispatched load instructions (Count)
system.cpu.dispStoreInsts                    64352139                       # Number of dispatched store instructions (Count)
system.cpu.dispNonSpecInsts                        29                       # Number of dispatched non-speculative instructions (Count)
system.cpu.iqFullEvents                            48                       # Number of times the IQ has become full, causing a stall (Count)
system.cpu.lsqFullEvents                         3227                       # Number of times the LSQ has become full, causing a stall (Count)
system.cpu.memOrderViolationEvents                161                       # Number of memory order violations (Count)
system.cpu.predictedTakenIncorrect               2820                       # Number of branches that were predicted taken incorrectly (Count)
system.cpu.predictedNotTakenIncorrect            3740                       # Number of branches that were predicted not taken incorrectly (Count)
system.cpu.branchMispredicts                     6560                       # Number of branch mispredicts detected at execute (Count)
system.cpu.numInsts                         102299427                       # Number of executed instructions (Count)
system.cpu.numLoadInsts                       1339851                       # Number of load instructions executed (Count)
system.cpu.numSquashedInsts                     16176                       # Number of squashed instructions skipped in execute (Count)
system.cpu.numSwp                                   0                       # Number of swp insts executed (Count)
system.cpu.numNop                                   0                       # Number of nop insts executed (Count)
system.cpu.numRefs                           65682812                       # Number of memory reference insts executed (Count)
system.cpu.numBranches                       16207358                       # Number of branches executed (Count)
system.cpu.numStoreInsts                     64342961                       # Number of stores executed (Count)
system.cpu.numRate                           0.347419                       # Inst execution rate ((Count/Cycle))
system.cpu.instsToCommit                    102290971                       # Cumulative count of insts sent to commit (Count)
system.cpu.writebackCount                   101541880                       # Cumulative count of insts written-back (Count)
system.cpu.producerInst                      21630075                       # Number of instructions producing a value (Count)
system.cpu.consumerInst                      83609471                       # Number of instructions consuming a value (Count)
system.cpu.wbRate                            0.344846                       # Insts written-back per cycle ((Count/Cycle))
system.cpu.wbFanout                          0.258704                       # Average fanout of values written-back ((Count/Count))
system.cpu.timesIdled                             337                       # Number of times that the entire CPU went into an idle state and unscheduled itself (Count)
system.cpu.idleCycles                           38899                       # Total number of cycles that the CPU has spent unscheduled due to idling (Cycle)
system.cpu.committedInsts                   100000001                       # Number of Instructions Simulated (Count)
system.cpu.committedOps                     100000001                       # Number of Ops (including micro ops) Simulated (Count)
system.cpu.cpi                               2.944554                       # CPI: Cycles Per Instruction ((Cycle/Count))
system.cpu.totalCpi                          2.944554                       # CPI: Total CPI of All Threads ((Cycle/Count))
system.cpu.ipc                               0.339610                       # IPC: Instructions Per Cycle ((Count/Cycle))
system.cpu.totalIpc                          0.339610                       # IPC: Total IPC of All Threads ((Count/Cycle))
system.cpu.intRegfileReads                  183727182                       # Number of integer regfile reads (Count)
system.cpu.intRegfileWrites                  21750363                       # Number of integer regfile writes (Count)
system.cpu.miscRegfileReads                        16                       # number of misc regfile reads (Count)
system.cpu.MemDepUnit__0.insertedLoads        1359180                       # Number of loads inserted to the mem dependence unit. (Count)
system.cpu.MemDepUnit__0.insertedStores      64352139                       # Number of stores inserted to the mem dependence unit. (Count)
system.cpu.MemDepUnit__0.conflictingLoads       155251                       # Number of conflicting loads. (Count)
system.cpu.MemDepUnit__0.conflictingStores         9738                       # Number of conflicting stores. (Count)
system.cpu.MemDepUnit__1.insertedLoads              0                       # Number of loads inserted to the mem dependence unit. (Count)
system.cpu.MemDepUnit__1.insertedStores             0                       # Number of stores inserted to the mem dependence unit. (Count)
system.cpu.MemDepUnit__1.conflictingLoads            0                       # Number of conflicting loads. (Count)
system.cpu.MemDepUnit__1.conflictingStores            0                       # Number of conflicting stores. (Count)
system.cpu.MemDepUnit__2.insertedLoads              0                       # Number of loads inserted to the mem dependence unit. (Count)
system.cpu.MemDepUnit__2.insertedStores             0                       # Number of stores inserted to the mem dependence unit. (Count)
system.cpu.MemDepUnit__2.conflictingLoads            0                       # Number of conflicting loads. (Count)
system.cpu.MemDepUnit__2.conflictingStores            0                       # Number of conflicting stores. (Count)
system.cpu.MemDepUnit__3.insertedLoads              0                       # Number of loads inserted to the mem dependence unit. (Count)
system.cpu.MemDepUnit__3.insertedStores             0                       # Number of stores inserted to the mem dependence unit. (Count)
system.cpu.MemDepUnit__3.conflictingLoads            0                       # Number of conflicting loads. (Count)
system.cpu.MemDepUnit__3.conflictingStores            0                       # Number of conflicting stores. (Count)
system.cpu.branchPred.lookups                16574306                       # Number of BP lookups (Count)
system.cpu.branchPred.condPredicted          16561635                       # Number of conditional branches predicted (Count)
system.cpu.branchPred.condIncorrect              6381                       # Number of conditional branches incorrect (Count)
system.cpu.branchPred.BTBLookups             16516691                       # Number of BTB lookups (Count)
system.cpu.branchPred.BTBHits                16515957                       # Number of BTB hits (Count)
system.cpu.branchPred.BTBMissPct             0.000044                       # BTB Miss Percentage (Ratio)
system.cpu.branchPred.BTBHitRatio            0.999956                       # BTB Hit Ratio (Ratio)
system.cpu.branchPred.RASUsed                       0                       # Number of times the RAS was used to get a target. (Count)
system.cpu.branchPred.RASIncorrect                  0                       # Number of incorrect RAS predictions. (Count)
system.cpu.branchPred.indirectLookups            4636                       # Number of indirect predictor lookups. (Count)
system.cpu.branchPred.indirectHits               2930                       # Number of indirect target hits. (Count)
system.cpu.branchPred.indirectMisses             1706                       # Number of indirect misses. (Count)
system.cpu.branchPred.indirectMispredicted          468                       # Number of mispredicted indirect branches. (Count)
system.cpu.commit.commitSquashedInsts         1400995                       # The number of squashed insts skipped by commit (Count)
system.cpu.commit.commitNonSpecStalls              16                       # The number of times commit has been forced to stall to communicate backwards (Count)
system.cpu.commit.branchMispredicts              6070                       # The number of times a branch was mispredicted (Count)
system.cpu.commit.numCommittedDist::samples    294204239                       # Number of insts commited each cycle (Count)
system.cpu.commit.numCommittedDist::mean     0.339900                       # Number of insts commited each cycle (Count)
system.cpu.commit.numCommittedDist::stdev     1.256217                       # Number of insts commited each cycle (Count)
system.cpu.commit.numCommittedDist::underflows            0      0.00%      0.00% # Number of insts commited each cycle (Count)
system.cpu.commit.numCommittedDist::0       264685873     89.97%     89.97% # Number of insts commited each cycle (Count)
system.cpu.commit.numCommittedDist::1         9648031      3.28%     93.25% # Number of insts commited each cycle (Count)
system.cpu.commit.numCommittedDist::2         7230832      2.46%     95.70% # Number of insts commited each cycle (Count)
system.cpu.commit.numCommittedDist::3          109887      0.04%     95.74% # Number of insts commited each cycle (Count)
system.cpu.commit.numCommittedDist::4            8880      0.00%     95.74% # Number of insts commited each cycle (Count)
system.cpu.commit.numCommittedDist::5          753387      0.26%     96.00% # Number of insts commited each cycle (Count)
system.cpu.commit.numCommittedDist::6        11164704      3.79%     99.80% # Number of insts commited each cycle (Count)
system.cpu.commit.numCommittedDist::7           51194      0.02%     99.81% # Number of insts commited each cycle (Count)
system.cpu.commit.numCommittedDist::8          551451      0.19%    100.00% # Number of insts commited each cycle (Count)
system.cpu.commit.numCommittedDist::overflows            0      0.00%    100.00% # Number of insts commited each cycle (Count)
system.cpu.commit.numCommittedDist::min_value            0                       # Number of insts commited each cycle (Count)
system.cpu.commit.numCommittedDist::max_value            8                       # Number of insts commited each cycle (Count)
system.cpu.commit.numCommittedDist::total    294204239                       # Number of insts commited each cycle (Count)
system.cpu.commit.instsCommitted            100000001                       # Number of instructions committed (Count)
system.cpu.commit.opsCommitted              100000001                       # Number of ops (including micro ops) committed (Count)
system.cpu.commit.memRefs                    64194500                       # Number of memory references committed (Count)
system.cpu.commit.loads                       1305861                       # Number of loads committed (Count)
system.cpu.commit.amos                              0                       # Number of atomic instructions committed (Count)
system.cpu.commit.membars                           0                       # Number of memory barriers committed (Count)
system.cpu.commit.branches                   15851234                       # Number of branches committed (Count)
system.cpu.commit.vectorInstructions                0                       # Number of committed Vector instructions. (Count)
system.cpu.commit.floating                          0                       # Number of committed floating point instructions. (Count)
system.cpu.commit.integer                   100000001                       # Number of committed integer instructions. (Count)
system.cpu.commit.functionCalls                  7269                       # Number of function calls committed. (Count)
system.cpu.commit.committedInstType_0::No_OpClass            0      0.00%      0.00% # Class of committed instruction (Count)
system.cpu.commit.committedInstType_0::IntAlu     35805501     35.81%     35.81% # Class of committed instruction (Count)
system.cpu.commit.committedInstType_0::IntMult            0      0.00%     35.81% # Class of committed instruction (Count)
system.cpu.commit.committedInstType_0::IntDiv            0      0.00%     35.81% # Class of committed instruction (Count)
system.cpu.commit.committedInstType_0::FloatAdd            0      0.00%     35.81% # Class of committed instruction (Count)
system.cpu.commit.committedInstType_0::FloatCmp            0      0.00%     35.81% # Class of committed instruction (Count)
system.cpu.commit.committedInstType_0::FloatCvt            0      0.00%     35.81% # Class of committed instruction (Count)
system.cpu.commit.committedInstType_0::FloatMult            0      0.00%     35.81% # Class of committed instruction (Count)
system.cpu.commit.committedInstType_0::FloatMultAcc            0      0.00%     35.81% # Class of committed instruction (Count)
system.cpu.commit.committedInstType_0::FloatDiv            0      0.00%     35.81% # Class of committed instruction (Count)
system.cpu.commit.committedInstType_0::FloatMisc            0      0.00%     35.81% # Class of committed instruction (Count)
system.cpu.commit.committedInstType_0::FloatSqrt            0      0.00%     35.81% # Class of committed instruction (Count)
system.cpu.commit.committedInstType_0::SimdAdd            0      0.00%     35.81% # Class of committed instruction (Count)
system.cpu.commit.committedInstType_0::SimdAddAcc            0      0.00%     35.81% # Class of committed instruction (Count)
system.cpu.commit.committedInstType_0::SimdAlu            0      0.00%     35.81% # Class of committed instruction (Count)
system.cpu.commit.committedInstType_0::SimdCmp            0      0.00%     35.81% # Class of committed instruction (Count)
system.cpu.commit.committedInstType_0::SimdCvt            0      0.00%     35.81% # Class of committed instruction (Count)
system.cpu.commit.committedInstType_0::SimdMisc            0      0.00%     35.81% # Class of committed instruction (Count)
system.cpu.commit.committedInstType_0::SimdMult            0      0.00%     35.81% # Class of committed instruction (Count)
system.cpu.commit.committedInstType_0::SimdMultAcc            0      0.00%     35.81% # Class of committed instruction (Count)
system.cpu.commit.committedInstType_0::SimdShift            0      0.00%     35.81% # Class of committed instruction (Count)
system.cpu.commit.committedInstType_0::SimdShiftAcc            0      0.00%     35.81% # Class of committed instruction (Count)
system.cpu.commit.committedInstType_0::SimdDiv            0      0.00%     35.81% # Class of committed instruction (Count)
system.cpu.commit.committedInstType_0::SimdSqrt            0      0.00%     35.81% # Class of committed instruction (Count)
system.cpu.commit.committedInstType_0::SimdFloatAdd            0      0.00%     35.81% # Class of committed instruction (Count)
system.cpu.commit.committedInstType_0::SimdFloatAlu            0      0.00%     35.81% # Class of committed instruction (Count)
system.cpu.commit.committedInstType_0::SimdFloatCmp            0      0.00%     35.81% # Class of committed instruction (Count)
system.cpu.commit.committedInstType_0::SimdFloatCvt            0      0.00%     35.81% # Class of committed instruction (Count)
system.cpu.commit.committedInstType_0::SimdFloatDiv            0      0.00%     35.81% # Class of committed instruction (Count)
system.cpu.commit.committedInstType_0::SimdFloatMisc            0      0.00%     35.81% # Class of committed instruction (Count)
system.cpu.commit.committedInstType_0::SimdFloatMult            0      0.00%     35.81% # Class of committed instruction (Count)
system.cpu.commit.committedInstType_0::SimdFloatMultAcc            0      0.00%     35.81% # Class of committed instruction (Count)
system.cpu.commit.committedInstType_0::SimdFloatSqrt            0      0.00%     35.81% # Class of committed instruction (Count)
system.cpu.commit.committedInstType_0::SimdReduceAdd            0      0.00%     35.81% # Class of committed instruction (Count)
system.cpu.commit.committedInstType_0::SimdReduceAlu            0      0.00%     35.81% # Class of committed instruction (Count)
system.cpu.commit.committedInstType_0::SimdReduceCmp            0      0.00%     35.81% # Class of committed instruction (Count)
system.cpu.commit.committedInstType_0::SimdFloatReduceAdd            0      0.00%     35.81% # Class of committed instruction (Count)
system.cpu.commit.committedInstType_0::SimdFloatReduceCmp            0      0.00%     35.81% # Class of committed instruction (Count)
system.cpu.commit.committedInstType_0::SimdAes            0      0.00%     35.81% # Class of committed instruction (Count)
system.cpu.commit.committedInstType_0::SimdAesMix            0      0.00%     35.81% # Class of committed instruction (Count)
system.cpu.commit.committedInstType_0::SimdSha1Hash            0      0.00%     35.81% # Class of committed instruction (Count)
system.cpu.commit.committedInstType_0::SimdSha1Hash2            0      0.00%     35.81% # Class of committed instruction (Count)
system.cpu.commit.committedInstType_0::SimdSha256Hash            0      0.00%     35.81% # Class of committed instruction (Count)
system.cpu.commit.committedInstType_0::SimdSha256Hash2            0      0.00%     35.81% # Class of committed instruction (Count)
system.cpu.commit.committedInstType_0::SimdShaSigma2            0      0.00%     35.81% # Class of committed instruction (Count)
system.cpu.commit.committedInstType_0::SimdShaSigma3            0      0.00%     35.81% # Class of committed instruction (Count)
system.cpu.commit.committedInstType_0::SimdPredAlu            0      0.00%     35.81% # Class of committed instruction (Count)
system.cpu.commit.committedInstType_0::MemRead      1305861      1.31%     37.11% # Class of committed instruction (Count)
system.cpu.commit.committedInstType_0::MemWrite     62888639     62.89%    100.00% # Class of committed instruction (Count)
system.cpu.commit.committedInstType_0::FloatMemRead            0      0.00%    100.00% # Class of committed instruction (Count)
system.cpu.commit.committedInstType_0::FloatMemWrite            0      0.00%    100.00% # Class of committed instruction (Count)
system.cpu.commit.committedInstType_0::IprAccess            0      0.00%    100.00% # Class of committed instruction (Count)
system.cpu.commit.committedInstType_0::InstPrefetch            0      0.00%    100.00% # Class of committed instruction (Count)
system.cpu.commit.committedInstType_0::total    100000001                       # Class of committed instruction (Count)
system.cpu.commit.commitEligibleSamples        551451                       # number cycles where commit BW limit reached (Cycle)
system.cpu.dcache.demandHits::cpu.data        1364198                       # number of demand (read+write) hits (Count)
system.cpu.dcache.demandHits::total           1364198                       # number of demand (read+write) hits (Count)
system.cpu.dcache.overallHits::cpu.data       1364198                       # number of overall hits (Count)
system.cpu.dcache.overallHits::total          1364198                       # number of overall hits (Count)
system.cpu.dcache.demandMisses::cpu.data     62708677                       # number of demand (read+write) misses (Count)
system.cpu.dcache.demandMisses::total        62708677                       # number of demand (read+write) misses (Count)
system.cpu.dcache.overallMisses::cpu.data     62708677                       # number of overall misses (Count)
system.cpu.dcache.overallMisses::total       62708677                       # number of overall misses (Count)
system.cpu.dcache.demandMissLatency::cpu.data 4382524022989                       # number of demand (read+write) miss ticks (Tick)
system.cpu.dcache.demandMissLatency::total 4382524022989                       # number of demand (read+write) miss ticks (Tick)
system.cpu.dcache.overallMissLatency::cpu.data 4382524022989                       # number of overall miss ticks (Tick)
system.cpu.dcache.overallMissLatency::total 4382524022989                       # number of overall miss ticks (Tick)
system.cpu.dcache.demandAccesses::cpu.data     64072875                       # number of demand (read+write) accesses (Count)
system.cpu.dcache.demandAccesses::total      64072875                       # number of demand (read+write) accesses (Count)
system.cpu.dcache.overallAccesses::cpu.data     64072875                       # number of overall (read+write) accesses (Count)
system.cpu.dcache.overallAccesses::total     64072875                       # number of overall (read+write) accesses (Count)
system.cpu.dcache.demandMissRate::cpu.data     0.978709                       # miss rate for demand accesses (Ratio)
system.cpu.dcache.demandMissRate::total      0.978709                       # miss rate for demand accesses (Ratio)
system.cpu.dcache.overallMissRate::cpu.data     0.978709                       # miss rate for overall accesses (Ratio)
system.cpu.dcache.overallMissRate::total     0.978709                       # miss rate for overall accesses (Ratio)
system.cpu.dcache.demandAvgMissLatency::cpu.data 69887.043271                       # average overall miss latency ((Cycle/Count))
system.cpu.dcache.demandAvgMissLatency::total 69887.043271                       # average overall miss latency ((Cycle/Count))
system.cpu.dcache.overallAvgMissLatency::cpu.data 69887.043271                       # average overall miss latency ((Cycle/Count))
system.cpu.dcache.overallAvgMissLatency::total 69887.043271                       # average overall miss latency ((Cycle/Count))
system.cpu.dcache.blockedCycles::no_mshrs        54320                       # number of cycles access was blocked (Cycle)
system.cpu.dcache.blockedCycles::no_targets          735                       # number of cycles access was blocked (Cycle)
system.cpu.dcache.blockedCauses::no_mshrs          617                       # number of times access was blocked (Count)
system.cpu.dcache.blockedCauses::no_targets            4                       # number of times access was blocked (Count)
system.cpu.dcache.avgBlocked::no_mshrs      88.038898                       # average number of cycles each access was blocked ((Cycle/Count))
system.cpu.dcache.avgBlocked::no_targets   183.750000                       # average number of cycles each access was blocked ((Cycle/Count))
system.cpu.dcache.writebacks::writebacks      3922493                       # number of writebacks (Count)
system.cpu.dcache.writebacks::total           3922493                       # number of writebacks (Count)
system.cpu.dcache.demandMshrHits::cpu.data     58785943                       # number of demand (read+write) MSHR hits (Count)
system.cpu.dcache.demandMshrHits::total      58785943                       # number of demand (read+write) MSHR hits (Count)
system.cpu.dcache.overallMshrHits::cpu.data     58785943                       # number of overall MSHR hits (Count)
system.cpu.dcache.overallMshrHits::total     58785943                       # number of overall MSHR hits (Count)
system.cpu.dcache.demandMshrMisses::cpu.data      3922734                       # number of demand (read+write) MSHR misses (Count)
system.cpu.dcache.demandMshrMisses::total      3922734                       # number of demand (read+write) MSHR misses (Count)
system.cpu.dcache.overallMshrMisses::cpu.data      3922734                       # number of overall MSHR misses (Count)
system.cpu.dcache.overallMshrMisses::total      3922734                       # number of overall MSHR misses (Count)
system.cpu.dcache.demandMshrMissLatency::cpu.data 393075165493                       # number of demand (read+write) MSHR miss ticks (Tick)
system.cpu.dcache.demandMshrMissLatency::total 393075165493                       # number of demand (read+write) MSHR miss ticks (Tick)
system.cpu.dcache.overallMshrMissLatency::cpu.data 393075165493                       # number of overall MSHR miss ticks (Tick)
system.cpu.dcache.overallMshrMissLatency::total 393075165493                       # number of overall MSHR miss ticks (Tick)
system.cpu.dcache.demandMshrMissRate::cpu.data     0.061223                       # mshr miss ratio for demand accesses (Ratio)
system.cpu.dcache.demandMshrMissRate::total     0.061223                       # mshr miss ratio for demand accesses (Ratio)
system.cpu.dcache.overallMshrMissRate::cpu.data     0.061223                       # mshr miss ratio for overall accesses (Ratio)
system.cpu.dcache.overallMshrMissRate::total     0.061223                       # mshr miss ratio for overall accesses (Ratio)
system.cpu.dcache.demandAvgMshrMissLatency::cpu.data 100204.389462                       # average overall mshr miss latency ((Cycle/Count))
system.cpu.dcache.demandAvgMshrMissLatency::total 100204.389462                       # average overall mshr miss latency ((Cycle/Count))
system.cpu.dcache.overallAvgMshrMissLatency::cpu.data 100204.389462                       # average overall mshr miss latency ((Cycle/Count))
system.cpu.dcache.overallAvgMshrMissLatency::total 100204.389462                       # average overall mshr miss latency ((Cycle/Count))
system.cpu.dcache.replacements                3922604                       # number of replacements (Count)
system.cpu.dcache.ReadReq.hits::cpu.data      1183766                       # number of ReadReq hits (Count)
system.cpu.dcache.ReadReq.hits::total         1183766                       # number of ReadReq hits (Count)
system.cpu.dcache.ReadReq.misses::cpu.data          475                       # number of ReadReq misses (Count)
system.cpu.dcache.ReadReq.misses::total           475                       # number of ReadReq misses (Count)
system.cpu.dcache.ReadReq.missLatency::cpu.data     30947500                       # number of ReadReq miss ticks (Tick)
system.cpu.dcache.ReadReq.missLatency::total     30947500                       # number of ReadReq miss ticks (Tick)
system.cpu.dcache.ReadReq.accesses::cpu.data      1184241                       # number of ReadReq accesses(hits+misses) (Count)
system.cpu.dcache.ReadReq.accesses::total      1184241                       # number of ReadReq accesses(hits+misses) (Count)
system.cpu.dcache.ReadReq.missRate::cpu.data     0.000401                       # miss rate for ReadReq accesses (Ratio)
system.cpu.dcache.ReadReq.missRate::total     0.000401                       # miss rate for ReadReq accesses (Ratio)
system.cpu.dcache.ReadReq.avgMissLatency::cpu.data 65152.631579                       # average ReadReq miss latency ((Tick/Count))
system.cpu.dcache.ReadReq.avgMissLatency::total 65152.631579                       # average ReadReq miss latency ((Tick/Count))
system.cpu.dcache.ReadReq.mshrHits::cpu.data          296                       # number of ReadReq MSHR hits (Count)
system.cpu.dcache.ReadReq.mshrHits::total          296                       # number of ReadReq MSHR hits (Count)
system.cpu.dcache.ReadReq.mshrMisses::cpu.data          179                       # number of ReadReq MSHR misses (Count)
system.cpu.dcache.ReadReq.mshrMisses::total          179                       # number of ReadReq MSHR misses (Count)
system.cpu.dcache.ReadReq.mshrMissLatency::cpu.data     12962500                       # number of ReadReq MSHR miss ticks (Tick)
system.cpu.dcache.ReadReq.mshrMissLatency::total     12962500                       # number of ReadReq MSHR miss ticks (Tick)
system.cpu.dcache.ReadReq.mshrMissRate::cpu.data     0.000151                       # mshr miss rate for ReadReq accesses (Ratio)
system.cpu.dcache.ReadReq.mshrMissRate::total     0.000151                       # mshr miss rate for ReadReq accesses (Ratio)
system.cpu.dcache.ReadReq.avgMshrMissLatency::cpu.data 72416.201117                       # average ReadReq mshr miss latency ((Tick/Count))
system.cpu.dcache.ReadReq.avgMshrMissLatency::total 72416.201117                       # average ReadReq mshr miss latency ((Tick/Count))
system.cpu.dcache.WriteReq.hits::cpu.data       180432                       # number of WriteReq hits (Count)
system.cpu.dcache.WriteReq.hits::total         180432                       # number of WriteReq hits (Count)
system.cpu.dcache.WriteReq.misses::cpu.data     62708202                       # number of WriteReq misses (Count)
system.cpu.dcache.WriteReq.misses::total     62708202                       # number of WriteReq misses (Count)
system.cpu.dcache.WriteReq.missLatency::cpu.data 4382493075489                       # number of WriteReq miss ticks (Tick)
system.cpu.dcache.WriteReq.missLatency::total 4382493075489                       # number of WriteReq miss ticks (Tick)
system.cpu.dcache.WriteReq.accesses::cpu.data     62888634                       # number of WriteReq accesses(hits+misses) (Count)
system.cpu.dcache.WriteReq.accesses::total     62888634                       # number of WriteReq accesses(hits+misses) (Count)
system.cpu.dcache.WriteReq.missRate::cpu.data     0.997131                       # miss rate for WriteReq accesses (Ratio)
system.cpu.dcache.WriteReq.missRate::total     0.997131                       # miss rate for WriteReq accesses (Ratio)
system.cpu.dcache.WriteReq.avgMissLatency::cpu.data 69887.079133                       # average WriteReq miss latency ((Tick/Count))
system.cpu.dcache.WriteReq.avgMissLatency::total 69887.079133                       # average WriteReq miss latency ((Tick/Count))
system.cpu.dcache.WriteReq.mshrHits::cpu.data     58785647                       # number of WriteReq MSHR hits (Count)
system.cpu.dcache.WriteReq.mshrHits::total     58785647                       # number of WriteReq MSHR hits (Count)
system.cpu.dcache.WriteReq.mshrMisses::cpu.data      3922555                       # number of WriteReq MSHR misses (Count)
system.cpu.dcache.WriteReq.mshrMisses::total      3922555                       # number of WriteReq MSHR misses (Count)
system.cpu.dcache.WriteReq.mshrMissLatency::cpu.data 393062202993                       # number of WriteReq MSHR miss ticks (Tick)
system.cpu.dcache.WriteReq.mshrMissLatency::total 393062202993                       # number of WriteReq MSHR miss ticks (Tick)
system.cpu.dcache.WriteReq.mshrMissRate::cpu.data     0.062373                       # mshr miss rate for WriteReq accesses (Ratio)
system.cpu.dcache.WriteReq.mshrMissRate::total     0.062373                       # mshr miss rate for WriteReq accesses (Ratio)
system.cpu.dcache.WriteReq.avgMshrMissLatency::cpu.data 100205.657535                       # average WriteReq mshr miss latency ((Tick/Count))
system.cpu.dcache.WriteReq.avgMshrMissLatency::total 100205.657535                       # average WriteReq mshr miss latency ((Tick/Count))
system.cpu.dcache.power_state.pwrStateResidencyTicks::UNDEFINED 147227704000                       # Cumulative time (in ticks) in various power states (Tick)
system.cpu.dcache.tags.tagsInUse           127.998136                       # Average ticks per tags in use ((Tick/Count))
system.cpu.dcache.tags.totalRefs              5286930                       # Total number of references to valid blocks. (Count)
system.cpu.dcache.tags.sampledRefs            3922732                       # Sample count of references to valid blocks. (Count)
system.cpu.dcache.tags.avgRefs               1.347767                       # Average number of references to valid blocks. ((Count/Count))
system.cpu.dcache.tags.warmupTick              349500                       # The tick when the warmup percentage was hit. (Tick)
system.cpu.dcache.tags.occupancies::cpu.data   127.998136                       # Average occupied blocks per tick, per requestor ((Count/Tick))
system.cpu.dcache.tags.avgOccs::cpu.data     0.999985                       # Average percentage of cache occupancy ((Ratio/Tick))
system.cpu.dcache.tags.avgOccs::total        0.999985                       # Average percentage of cache occupancy ((Ratio/Tick))
system.cpu.dcache.tags.occupanciesTaskId::1024          128                       # Occupied blocks per task id (Count)
system.cpu.dcache.tags.ageTaskId_1024::0          128                       # Occupied blocks per task id, per block age (Count)
system.cpu.dcache.tags.ratioOccsTaskId::1024            1                       # Ratio of occupied blocks and all blocks, per task id (Ratio)
system.cpu.dcache.tags.tagAccesses          132068482                       # Number of tag accesses (Count)
system.cpu.dcache.tags.dataAccesses         132068482                       # Number of data accesses (Count)
system.cpu.dcache.tags.power_state.pwrStateResidencyTicks::UNDEFINED 147227704000                       # Cumulative time (in ticks) in various power states (Tick)
system.cpu.decode.idleCycles                  4429534                       # Number of cycles decode is idle (Cycle)
system.cpu.decode.blockedCycles             276960503                       # Number of cycles decode is blocked (Cycle)
system.cpu.decode.runCycles                   2124979                       # Number of cycles decode is running (Cycle)
system.cpu.decode.unblockCycles              10851317                       # Number of cycles decode is unblocking (Cycle)
system.cpu.decode.squashCycles                  50177                       # Number of cycles decode is squashing (Cycle)
system.cpu.decode.branchResolved             16163199                       # Number of times decode resolved a branch (Count)
system.cpu.decode.branchMispred                   324                       # Number of times decode detected a branch misprediction (Count)
system.cpu.decode.decodedInsts              102528939                       # Number of instructions handled by decode (Count)
system.cpu.decode.squashedInsts                  1205                       # Number of squashed instructions handled by decode (Count)
system.cpu.dtb_walker_cache.blockedCycles::no_mshrs            0                       # number of cycles access was blocked (Cycle)
system.cpu.dtb_walker_cache.blockedCycles::no_targets            0                       # number of cycles access was blocked (Cycle)
system.cpu.dtb_walker_cache.blockedCauses::no_mshrs            0                       # number of times access was blocked (Count)
system.cpu.dtb_walker_cache.blockedCauses::no_targets            0                       # number of times access was blocked (Count)
system.cpu.dtb_walker_cache.avgBlocked::no_mshrs          nan                       # average number of cycles each access was blocked ((Cycle/Count))
system.cpu.dtb_walker_cache.avgBlocked::no_targets          nan                       # average number of cycles each access was blocked ((Cycle/Count))
system.cpu.dtb_walker_cache.replacements            0                       # number of replacements (Count)
system.cpu.dtb_walker_cache.power_state.pwrStateResidencyTicks::UNDEFINED 147227704000                       # Cumulative time (in ticks) in various power states (Tick)
system.cpu.dtb_walker_cache.tags.tagsInUse            0                       # Average ticks per tags in use ((Tick/Count))
system.cpu.dtb_walker_cache.tags.totalRefs            0                       # Total number of references to valid blocks. (Count)
system.cpu.dtb_walker_cache.tags.sampledRefs            0                       # Sample count of references to valid blocks. (Count)
system.cpu.dtb_walker_cache.tags.avgRefs          nan                       # Average number of references to valid blocks. ((Count/Count))
system.cpu.dtb_walker_cache.tags.warmupTick            0                       # The tick when the warmup percentage was hit. (Tick)
system.cpu.dtb_walker_cache.tags.tagAccesses            0                       # Number of tag accesses (Count)
system.cpu.dtb_walker_cache.tags.dataAccesses            0                       # Number of data accesses (Count)
system.cpu.dtb_walker_cache.tags.power_state.pwrStateResidencyTicks::UNDEFINED 147227704000                       # Cumulative time (in ticks) in various power states (Tick)
system.cpu.fetch.icacheStallCycles             460239                       # Number of cycles fetch is stalled on an Icache miss (Cycle)
system.cpu.fetch.insts                      104706144                       # Number of instructions fetch has processed (Count)
system.cpu.fetch.branches                    16574306                       # Number of branches that fetch encountered (Count)
system.cpu.fetch.predictedBranches           16518887                       # Number of branches that fetch has predicted taken (Count)
system.cpu.fetch.cycles                     293905542                       # Number of cycles fetch has run and was not squashing or blocked (Cycle)
system.cpu.fetch.squashCycles                  100976                       # Number of cycles fetch has spent squashing (Cycle)
system.cpu.fetch.miscStallCycles                  146                       # Number of cycles fetch has spent waiting on interrupts, or bad addresses, or out of MSHRs (Cycle)
system.cpu.fetch.icacheWaitRetryStallCycles           95                       # Number of stall cycles due to full MSHR (Cycle)
system.cpu.fetch.cacheLines                    447950                       # Number of cache lines fetched (Count)
system.cpu.fetch.icacheSquashes                  2710                       # Number of outstanding Icache misses that were squashed (Count)
system.cpu.fetch.nisnDist::samples          294416510                       # Number of instructions fetched each cycle (Total) (Count)
system.cpu.fetch.nisnDist::mean              0.355640                       # Number of instructions fetched each cycle (Total) (Count)
system.cpu.fetch.nisnDist::stdev             1.302101                       # Number of instructions fetched each cycle (Total) (Count)
system.cpu.fetch.nisnDist::underflows               0      0.00%      0.00% # Number of instructions fetched each cycle (Total) (Count)
system.cpu.fetch.nisnDist::0                270726872     91.95%     91.95% # Number of instructions fetched each cycle (Total) (Count)
system.cpu.fetch.nisnDist::1                    74282      0.03%     91.98% # Number of instructions fetched each cycle (Total) (Count)
system.cpu.fetch.nisnDist::2                  6402171      2.17%     94.15% # Number of instructions fetched each cycle (Total) (Count)
system.cpu.fetch.nisnDist::3                    24438      0.01%     94.16% # Number of instructions fetched each cycle (Total) (Count)
system.cpu.fetch.nisnDist::4                  6370173      2.16%     96.33% # Number of instructions fetched each cycle (Total) (Count)
system.cpu.fetch.nisnDist::5                    22295      0.01%     96.33% # Number of instructions fetched each cycle (Total) (Count)
system.cpu.fetch.nisnDist::6                 10094624      3.43%     99.76% # Number of instructions fetched each cycle (Total) (Count)
system.cpu.fetch.nisnDist::7                    18945      0.01%     99.77% # Number of instructions fetched each cycle (Total) (Count)
system.cpu.fetch.nisnDist::8                   682710      0.23%    100.00% # Number of instructions fetched each cycle (Total) (Count)
system.cpu.fetch.nisnDist::overflows                0      0.00%    100.00% # Number of instructions fetched each cycle (Total) (Count)
system.cpu.fetch.nisnDist::min_value                0                       # Number of instructions fetched each cycle (Total) (Count)
system.cpu.fetch.nisnDist::max_value                8                       # Number of instructions fetched each cycle (Total) (Count)
system.cpu.fetch.nisnDist::total            294416510                       # Number of instructions fetched each cycle (Total) (Count)
system.cpu.fetch.branchRate                  0.056288                       # Number of branch fetches per cycle (Ratio)
system.cpu.fetch.rate                        0.355593                       # Number of inst fetches per cycle ((Count/Cycle))
system.cpu.icache.demandHits::cpu.inst         447110                       # number of demand (read+write) hits (Count)
system.cpu.icache.demandHits::total            447110                       # number of demand (read+write) hits (Count)
system.cpu.icache.overallHits::cpu.inst        447110                       # number of overall hits (Count)
system.cpu.icache.overallHits::total           447110                       # number of overall hits (Count)
system.cpu.icache.demandMisses::cpu.inst          838                       # number of demand (read+write) misses (Count)
system.cpu.icache.demandMisses::total             838                       # number of demand (read+write) misses (Count)
system.cpu.icache.overallMisses::cpu.inst          838                       # number of overall misses (Count)
system.cpu.icache.overallMisses::total            838                       # number of overall misses (Count)
system.cpu.icache.demandMissLatency::cpu.inst     59790499                       # number of demand (read+write) miss ticks (Tick)
system.cpu.icache.demandMissLatency::total     59790499                       # number of demand (read+write) miss ticks (Tick)
system.cpu.icache.overallMissLatency::cpu.inst     59790499                       # number of overall miss ticks (Tick)
system.cpu.icache.overallMissLatency::total     59790499                       # number of overall miss ticks (Tick)
system.cpu.icache.demandAccesses::cpu.inst       447948                       # number of demand (read+write) accesses (Count)
system.cpu.icache.demandAccesses::total        447948                       # number of demand (read+write) accesses (Count)
system.cpu.icache.overallAccesses::cpu.inst       447948                       # number of overall (read+write) accesses (Count)
system.cpu.icache.overallAccesses::total       447948                       # number of overall (read+write) accesses (Count)
system.cpu.icache.demandMissRate::cpu.inst     0.001871                       # miss rate for demand accesses (Ratio)
system.cpu.icache.demandMissRate::total      0.001871                       # miss rate for demand accesses (Ratio)
system.cpu.icache.overallMissRate::cpu.inst     0.001871                       # miss rate for overall accesses (Ratio)
system.cpu.icache.overallMissRate::total     0.001871                       # miss rate for overall accesses (Ratio)
system.cpu.icache.demandAvgMissLatency::cpu.inst 71349.044153                       # average overall miss latency ((Cycle/Count))
system.cpu.icache.demandAvgMissLatency::total 71349.044153                       # average overall miss latency ((Cycle/Count))
system.cpu.icache.overallAvgMissLatency::cpu.inst 71349.044153                       # average overall miss latency ((Cycle/Count))
system.cpu.icache.overallAvgMissLatency::total 71349.044153                       # average overall miss latency ((Cycle/Count))
system.cpu.icache.blockedCycles::no_mshrs          602                       # number of cycles access was blocked (Cycle)
system.cpu.icache.blockedCycles::no_targets            0                       # number of cycles access was blocked (Cycle)
system.cpu.icache.blockedCauses::no_mshrs           17                       # number of times access was blocked (Count)
system.cpu.icache.blockedCauses::no_targets            0                       # number of times access was blocked (Count)
system.cpu.icache.avgBlocked::no_mshrs      35.411765                       # average number of cycles each access was blocked ((Cycle/Count))
system.cpu.icache.avgBlocked::no_targets          nan                       # average number of cycles each access was blocked ((Cycle/Count))
system.cpu.icache.writebacks::writebacks          492                       # number of writebacks (Count)
system.cpu.icache.writebacks::total               492                       # number of writebacks (Count)
system.cpu.icache.demandMshrHits::cpu.inst          218                       # number of demand (read+write) MSHR hits (Count)
system.cpu.icache.demandMshrHits::total           218                       # number of demand (read+write) MSHR hits (Count)
system.cpu.icache.overallMshrHits::cpu.inst          218                       # number of overall MSHR hits (Count)
system.cpu.icache.overallMshrHits::total          218                       # number of overall MSHR hits (Count)
system.cpu.icache.demandMshrMisses::cpu.inst          620                       # number of demand (read+write) MSHR misses (Count)
system.cpu.icache.demandMshrMisses::total          620                       # number of demand (read+write) MSHR misses (Count)
system.cpu.icache.overallMshrMisses::cpu.inst          620                       # number of overall MSHR misses (Count)
system.cpu.icache.overallMshrMisses::total          620                       # number of overall MSHR misses (Count)
system.cpu.icache.demandMshrMissLatency::cpu.inst     46554499                       # number of demand (read+write) MSHR miss ticks (Tick)
system.cpu.icache.demandMshrMissLatency::total     46554499                       # number of demand (read+write) MSHR miss ticks (Tick)
system.cpu.icache.overallMshrMissLatency::cpu.inst     46554499                       # number of overall MSHR miss ticks (Tick)
system.cpu.icache.overallMshrMissLatency::total     46554499                       # number of overall MSHR miss ticks (Tick)
system.cpu.icache.demandMshrMissRate::cpu.inst     0.001384                       # mshr miss ratio for demand accesses (Ratio)
system.cpu.icache.demandMshrMissRate::total     0.001384                       # mshr miss ratio for demand accesses (Ratio)
system.cpu.icache.overallMshrMissRate::cpu.inst     0.001384                       # mshr miss ratio for overall accesses (Ratio)
system.cpu.icache.overallMshrMissRate::total     0.001384                       # mshr miss ratio for overall accesses (Ratio)
system.cpu.icache.demandAvgMshrMissLatency::cpu.inst 75087.901613                       # average overall mshr miss latency ((Cycle/Count))
system.cpu.icache.demandAvgMshrMissLatency::total 75087.901613                       # average overall mshr miss latency ((Cycle/Count))
system.cpu.icache.overallAvgMshrMissLatency::cpu.inst 75087.901613                       # average overall mshr miss latency ((Cycle/Count))
system.cpu.icache.overallAvgMshrMissLatency::total 75087.901613                       # average overall mshr miss latency ((Cycle/Count))
system.cpu.icache.replacements                    492                       # number of replacements (Count)
system.cpu.icache.ReadReq.hits::cpu.inst       447110                       # number of ReadReq hits (Count)
system.cpu.icache.ReadReq.hits::total          447110                       # number of ReadReq hits (Count)
system.cpu.icache.ReadReq.misses::cpu.inst          838                       # number of ReadReq misses (Count)
system.cpu.icache.ReadReq.misses::total           838                       # number of ReadReq misses (Count)
system.cpu.icache.ReadReq.missLatency::cpu.inst     59790499                       # number of ReadReq miss ticks (Tick)
system.cpu.icache.ReadReq.missLatency::total     59790499                       # number of ReadReq miss ticks (Tick)
system.cpu.icache.ReadReq.accesses::cpu.inst       447948                       # number of ReadReq accesses(hits+misses) (Count)
system.cpu.icache.ReadReq.accesses::total       447948                       # number of ReadReq accesses(hits+misses) (Count)
system.cpu.icache.ReadReq.missRate::cpu.inst     0.001871                       # miss rate for ReadReq accesses (Ratio)
system.cpu.icache.ReadReq.missRate::total     0.001871                       # miss rate for ReadReq accesses (Ratio)
system.cpu.icache.ReadReq.avgMissLatency::cpu.inst 71349.044153                       # average ReadReq miss latency ((Tick/Count))
system.cpu.icache.ReadReq.avgMissLatency::total 71349.044153                       # average ReadReq miss latency ((Tick/Count))
system.cpu.icache.ReadReq.mshrHits::cpu.inst          218                       # number of ReadReq MSHR hits (Count)
system.cpu.icache.ReadReq.mshrHits::total          218                       # number of ReadReq MSHR hits (Count)
system.cpu.icache.ReadReq.mshrMisses::cpu.inst          620                       # number of ReadReq MSHR misses (Count)
system.cpu.icache.ReadReq.mshrMisses::total          620                       # number of ReadReq MSHR misses (Count)
system.cpu.icache.ReadReq.mshrMissLatency::cpu.inst     46554499                       # number of ReadReq MSHR miss ticks (Tick)
system.cpu.icache.ReadReq.mshrMissLatency::total     46554499                       # number of ReadReq MSHR miss ticks (Tick)
system.cpu.icache.ReadReq.mshrMissRate::cpu.inst     0.001384                       # mshr miss rate for ReadReq accesses (Ratio)
system.cpu.icache.ReadReq.mshrMissRate::total     0.001384                       # mshr miss rate for ReadReq accesses (Ratio)
system.cpu.icache.ReadReq.avgMshrMissLatency::cpu.inst 75087.901613                       # average ReadReq mshr miss latency ((Tick/Count))
system.cpu.icache.ReadReq.avgMshrMissLatency::total 75087.901613                       # average ReadReq mshr miss latency ((Tick/Count))
system.cpu.icache.power_state.pwrStateResidencyTicks::UNDEFINED 147227704000                       # Cumulative time (in ticks) in various power states (Tick)
system.cpu.icache.tags.tagsInUse           126.216173                       # Average ticks per tags in use ((Tick/Count))
system.cpu.icache.tags.totalRefs               447730                       # Total number of references to valid blocks. (Count)
system.cpu.icache.tags.sampledRefs                620                       # Sample count of references to valid blocks. (Count)
system.cpu.icache.tags.avgRefs             722.145161                       # Average number of references to valid blocks. ((Count/Count))
system.cpu.icache.tags.warmupTick               87500                       # The tick when the warmup percentage was hit. (Tick)
system.cpu.icache.tags.occupancies::cpu.inst   126.216173                       # Average occupied blocks per tick, per requestor ((Count/Tick))
system.cpu.icache.tags.avgOccs::cpu.inst     0.986064                       # Average percentage of cache occupancy ((Ratio/Tick))
system.cpu.icache.tags.avgOccs::total        0.986064                       # Average percentage of cache occupancy ((Ratio/Tick))
system.cpu.icache.tags.occupanciesTaskId::1024          128                       # Occupied blocks per task id (Count)
system.cpu.icache.tags.ageTaskId_1024::3            1                       # Occupied blocks per task id, per block age (Count)
system.cpu.icache.tags.ageTaskId_1024::4          127                       # Occupied blocks per task id, per block age (Count)
system.cpu.icache.tags.ratioOccsTaskId::1024            1                       # Ratio of occupied blocks and all blocks, per task id (Ratio)
system.cpu.icache.tags.tagAccesses             896516                       # Number of tag accesses (Count)
system.cpu.icache.tags.dataAccesses            896516                       # Number of data accesses (Count)
system.cpu.icache.tags.power_state.pwrStateResidencyTicks::UNDEFINED 147227704000                       # Cumulative time (in ticks) in various power states (Tick)
system.cpu.itb_walker_cache.blockedCycles::no_mshrs            0                       # number of cycles access was blocked (Cycle)
system.cpu.itb_walker_cache.blockedCycles::no_targets            0                       # number of cycles access was blocked (Cycle)
system.cpu.itb_walker_cache.blockedCauses::no_mshrs            0                       # number of times access was blocked (Count)
system.cpu.itb_walker_cache.blockedCauses::no_targets            0                       # number of times access was blocked (Count)
system.cpu.itb_walker_cache.avgBlocked::no_mshrs          nan                       # average number of cycles each access was blocked ((Cycle/Count))
system.cpu.itb_walker_cache.avgBlocked::no_targets          nan                       # average number of cycles each access was blocked ((Cycle/Count))
system.cpu.itb_walker_cache.replacements            0                       # number of replacements (Count)
system.cpu.itb_walker_cache.power_state.pwrStateResidencyTicks::UNDEFINED 147227704000                       # Cumulative time (in ticks) in various power states (Tick)
system.cpu.itb_walker_cache.tags.tagsInUse            0                       # Average ticks per tags in use ((Tick/Count))
system.cpu.itb_walker_cache.tags.totalRefs            0                       # Total number of references to valid blocks. (Count)
system.cpu.itb_walker_cache.tags.sampledRefs            0                       # Sample count of references to valid blocks. (Count)
system.cpu.itb_walker_cache.tags.avgRefs          nan                       # Average number of references to valid blocks. ((Count/Count))
system.cpu.itb_walker_cache.tags.warmupTick            0                       # The tick when the warmup percentage was hit. (Tick)
system.cpu.itb_walker_cache.tags.tagAccesses            0                       # Number of tag accesses (Count)
system.cpu.itb_walker_cache.tags.dataAccesses            0                       # Number of data accesses (Count)
system.cpu.itb_walker_cache.tags.power_state.pwrStateResidencyTicks::UNDEFINED 147227704000                       # Cumulative time (in ticks) in various power states (Tick)
system.cpu.lsq0.forwLoads                      151158                       # Number of loads that had data forwarded from stores (Count)
system.cpu.lsq0.squashedLoads                   53319                       # Number of loads squashed (Count)
system.cpu.lsq0.ignoredResponses                   78                       # Number of memory responses ignored because the instruction is squashed (Count)
system.cpu.lsq0.memOrderViolation                 161                       # Number of memory ordering violations (Count)
system.cpu.lsq0.squashedStores                1463500                       # Number of stores squashed (Count)
system.cpu.lsq0.rescheduledLoads                    0                       # Number of loads that were rescheduled (Count)
system.cpu.lsq0.blockedByCache                    617                       # Number of times an access to memory failed due to the cache being blocked (Count)
system.cpu.lsq0.loadToUse::samples            1305861                       # Distribution of cycle latency between the first time a load is issued and its completion (Unspecified)
system.cpu.lsq0.loadToUse::mean              3.605852                       # Distribution of cycle latency between the first time a load is issued and its completion (Unspecified)
system.cpu.lsq0.loadToUse::stdev             9.487420                       # Distribution of cycle latency between the first time a load is issued and its completion (Unspecified)
system.cpu.lsq0.loadToUse::0-9                1301773     99.69%     99.69% # Distribution of cycle latency between the first time a load is issued and its completion (Unspecified)
system.cpu.lsq0.loadToUse::10-19                   41      0.00%     99.69% # Distribution of cycle latency between the first time a load is issued and its completion (Unspecified)
system.cpu.lsq0.loadToUse::20-29                  129      0.01%     99.70% # Distribution of cycle latency between the first time a load is issued and its completion (Unspecified)
system.cpu.lsq0.loadToUse::30-39                   28      0.00%     99.70% # Distribution of cycle latency between the first time a load is issued and its completion (Unspecified)
system.cpu.lsq0.loadToUse::40-49                   25      0.00%     99.70% # Distribution of cycle latency between the first time a load is issued and its completion (Unspecified)
system.cpu.lsq0.loadToUse::50-59                   40      0.00%     99.71% # Distribution of cycle latency between the first time a load is issued and its completion (Unspecified)
system.cpu.lsq0.loadToUse::60-69                   68      0.01%     99.71% # Distribution of cycle latency between the first time a load is issued and its completion (Unspecified)
system.cpu.lsq0.loadToUse::70-79                    5      0.00%     99.71% # Distribution of cycle latency between the first time a load is issued and its completion (Unspecified)
system.cpu.lsq0.loadToUse::80-89                    7      0.00%     99.71% # Distribution of cycle latency between the first time a load is issued and its completion (Unspecified)
system.cpu.lsq0.loadToUse::90-99                    1      0.00%     99.71% # Distribution of cycle latency between the first time a load is issued and its completion (Unspecified)
system.cpu.lsq0.loadToUse::100-109                839      0.06%     99.78% # Distribution of cycle latency between the first time a load is issued and its completion (Unspecified)
system.cpu.lsq0.loadToUse::110-119               1396      0.11%     99.88% # Distribution of cycle latency between the first time a load is issued and its completion (Unspecified)
system.cpu.lsq0.loadToUse::120-129                 36      0.00%     99.89% # Distribution of cycle latency between the first time a load is issued and its completion (Unspecified)
system.cpu.lsq0.loadToUse::130-139                341      0.03%     99.91% # Distribution of cycle latency between the first time a load is issued and its completion (Unspecified)
[...]
system.mem_ctrls.dram.perBankWrBursts::9       243125                       # Per bank write bursts (Count)
system.mem_ctrls.dram.perBankWrBursts::10       243080                       # Per bank write bursts (Count)
system.mem_ctrls.dram.perBankWrBursts::11       242881                       # Per bank write bursts (Count)
system.mem_ctrls.dram.perBankWrBursts::12       242964                       # Per bank write bursts (Count)
system.mem_ctrls.dram.perBankWrBursts::13       243023                       # Per bank write bursts (Count)
system.mem_ctrls.dram.perBankWrBursts::14       243090                       # Per bank write bursts (Count)
system.mem_ctrls.dram.perBankWrBursts::15       243138                       # Per bank write bursts (Count)
system.mem_ctrls.dram.totQLat            112861871000                       # Total ticks spent queuing (Tick)
system.mem_ctrls.dram.totBusLat           19614825000                       # Total ticks spent in databus transfers (Tick)
system.mem_ctrls.dram.totMemAccLat       186417464750                       # Total ticks spent from burst creation until serviced by the DRAM (Tick)
system.mem_ctrls.dram.avgQLat                28769.53                       # Average queueing delay per DRAM burst ((Tick/Count))
system.mem_ctrls.dram.avgBusLat               5000.00                       # Average bus latency per DRAM burst ((Tick/Count))
system.mem_ctrls.dram.avgMemAccLat           47519.53                       # Average memory access latency per DRAM burst ((Tick/Count))
system.mem_ctrls.dram.readRowHits             3575524                       # Number of row buffer hits during reads (Count)
system.mem_ctrls.dram.writeRowHits            3612974                       # Number of row buffer hits during writes (Count)
system.mem_ctrls.dram.readRowHitRate            91.14                       # Row buffer hit rate for reads (Ratio)
system.mem_ctrls.dram.writeRowHitRate           92.89                       # Row buffer hit rate for writes (Ratio)
system.mem_ctrls.dram.bytesPerActivate::samples       624059                       # Bytes accessed per row activation (Byte)
system.mem_ctrls.dram.bytesPerActivate::mean   801.211014                       # Bytes accessed per row activation (Byte)
system.mem_ctrls.dram.bytesPerActivate::gmean   650.427398                       # Bytes accessed per row activation (Byte)
system.mem_ctrls.dram.bytesPerActivate::stdev   339.891365                       # Bytes accessed per row activation (Byte)
system.mem_ctrls.dram.bytesPerActivate::0-127        25317      4.06%      4.06% # Bytes accessed per row activation (Byte)
system.mem_ctrls.dram.bytesPerActivate::128-255        66625     10.68%     14.73% # Bytes accessed per row activation (Byte)
system.mem_ctrls.dram.bytesPerActivate::256-383        21970      3.52%     18.25% # Bytes accessed per row activation (Byte)
system.mem_ctrls.dram.bytesPerActivate::384-511        19802      3.17%     21.43% # Bytes accessed per row activation (Byte)
system.mem_ctrls.dram.bytesPerActivate::512-639        22201      3.56%     24.98% # Bytes accessed per row activation (Byte)
system.mem_ctrls.dram.bytesPerActivate::640-767         7145      1.14%     26.13% # Bytes accessed per row activation (Byte)
system.mem_ctrls.dram.bytesPerActivate::768-895        22173      3.55%     29.68% # Bytes accessed per row activation (Byte)
system.mem_ctrls.dram.bytesPerActivate::896-1023       132151     21.18%     50.86% # Bytes accessed per row activation (Byte)
system.mem_ctrls.dram.bytesPerActivate::1024-1151       306675     49.14%    100.00% # Bytes accessed per row activation (Byte)
system.mem_ctrls.dram.bytesPerActivate::total       624059                       # Bytes accessed per row activation (Byte)
system.mem_ctrls.dram.bytesRead             251069760                       # Total number of bytes read from DRAM (Byte)
system.mem_ctrls.dram.bytesWritten          248934016                       # Total number of bytes written to DRAM (Byte)
system.mem_ctrls.dram.avgRdBW             1705.316005                       # Average DRAM read bandwidth in MiBytes/s ((Byte/Second))
system.mem_ctrls.dram.avgWrBW             1690.809605                       # Average DRAM write bandwidth in MiBytes/s ((Byte/Second))
system.mem_ctrls.dram.peakBW                 12800.00                       # Theoretical peak bandwidth in MiByte/s ((Byte/Second))
system.mem_ctrls.dram.busUtil                   26.53                       # Data bus utilization in percentage (Ratio)
system.mem_ctrls.dram.busUtilRead               13.32                       # Data bus utilization in percentage for reads (Ratio)
system.mem_ctrls.dram.busUtilWrite              13.21                       # Data bus utilization in percentage for writes (Ratio)
system.mem_ctrls.dram.pageHitRate               92.01                       # Row buffer hit rate, read and write combined (Ratio)
system.mem_ctrls.dram.power_state.pwrStateResidencyTicks::UNDEFINED 147227704000                       # Cumulative time (in ticks) in various power states (Tick)
system.mem_ctrls.dram.rank0.actEnergy      2226773220                       # Energy for activate commands per rank (pJ) (Joule)
system.mem_ctrls.dram.rank0.preEnergy      1183558035                       # Energy for precharge commands per rank (pJ) (Joule)
system.mem_ctrls.dram.rank0.readEnergy    14007416220                       # Energy for read commands per rank (pJ) (Joule)
system.mem_ctrls.dram.rank0.writeEnergy   10153949220                       # Energy for write commands per rank (pJ) (Joule)
system.mem_ctrls.dram.rank0.refreshEnergy 11621613120.000002                       # Energy for refresh commands per rank (pJ) (Joule)
system.mem_ctrls.dram.rank0.actBackEnergy  37391386680                       # Energy for active background per rank (pJ) (Joule)
system.mem_ctrls.dram.rank0.preBackEnergy  25047955200                       # Energy for precharge background per rank (pJ) (Joule)
system.mem_ctrls.dram.rank0.actPowerDownEnergy            0                       # Energy for active power-down per rank (pJ) (Joule)
system.mem_ctrls.dram.rank0.prePowerDownEnergy            0                       # Energy for precharge power-down per rank (pJ) (Joule)
system.mem_ctrls.dram.rank0.selfRefreshEnergy            0                       # Energy for self refresh per rank (pJ) (Joule)
system.mem_ctrls.dram.rank0.totalEnergy  101632651695                       # Total energy per rank (pJ) (Joule)
system.mem_ctrls.dram.rank0.averagePower   690.309289                       # Core power per rank (mW) (Watt)
system.mem_ctrls.dram.rank0.totalIdleTime            0                       # Total Idle time Per DRAM Rank (Tick)
system.mem_ctrls.dram.rank0.pwrStateTime::IDLE  63524920750                       # Time in different power states (Tick)
system.mem_ctrls.dram.rank0.pwrStateTime::REF   4916080000                       # Time in different power states (Tick)
system.mem_ctrls.dram.rank0.pwrStateTime::SREF            0                       # Time in different power states (Tick)
system.mem_ctrls.dram.rank0.pwrStateTime::PRE_PDN            0                       # Time in different power states (Tick)
system.mem_ctrls.dram.rank0.pwrStateTime::ACT  78786703250                       # Time in different power states (Tick)
system.mem_ctrls.dram.rank0.pwrStateTime::ACT_PDN            0                       # Time in different power states (Tick)
system.mem_ctrls.dram.rank1.actEnergy      2229022320                       # Energy for activate commands per rank (pJ) (Joule)
system.mem_ctrls.dram.rank1.preEnergy      1184745870                       # Energy for precharge commands per rank (pJ) (Joule)
system.mem_ctrls.dram.rank1.readEnergy    14002553880                       # Energy for read commands per rank (pJ) (Joule)
system.mem_ctrls.dram.rank1.writeEnergy   10149731460                       # Energy for write commands per rank (pJ) (Joule)
system.mem_ctrls.dram.rank1.refreshEnergy 11621613120.000002                       # Energy for refresh commands per rank (pJ) (Joule)
system.mem_ctrls.dram.rank1.actBackEnergy  37382514060                       # Energy for active background per rank (pJ) (Joule)
system.mem_ctrls.dram.rank1.preBackEnergy  25055426880                       # Energy for precharge background per rank (pJ) (Joule)
system.mem_ctrls.dram.rank1.actPowerDownEnergy            0                       # Energy for active power-down per rank (pJ) (Joule)
system.mem_ctrls.dram.rank1.prePowerDownEnergy            0                       # Energy for precharge power-down per rank (pJ) (Joule)
system.mem_ctrls.dram.rank1.selfRefreshEnergy            0                       # Energy for self refresh per rank (pJ) (Joule)
system.mem_ctrls.dram.rank1.totalEnergy  101625607590                       # Total energy per rank (pJ) (Joule)
system.mem_ctrls.dram.rank1.averagePower   690.261444                       # Core power per rank (mW) (Watt)
system.mem_ctrls.dram.rank1.totalIdleTime            0                       # Total Idle time Per DRAM Rank (Tick)
system.mem_ctrls.dram.rank1.pwrStateTime::IDLE  63559796000                       # Time in different power states (Tick)
system.mem_ctrls.dram.rank1.pwrStateTime::REF   4916080000                       # Time in different power states (Tick)
system.mem_ctrls.dram.rank1.pwrStateTime::SREF            0                       # Time in different power states (Tick)
system.mem_ctrls.dram.rank1.pwrStateTime::PRE_PDN            0                       # Time in different power states (Tick)
system.mem_ctrls.dram.rank1.pwrStateTime::ACT  78751828000                       # Time in different power states (Tick)
system.mem_ctrls.dram.rank1.pwrStateTime::ACT_PDN            0                       # Time in different power states (Tick)
system.mem_ctrls.power_state.pwrStateResidencyTicks::UNDEFINED 147227704000                       # Cumulative time (in ticks) in various power states (Tick)
system.membus.transDist::ReadResp                 610                       # Transaction distribution (Count)
system.membus.transDist::WritebackDirty       3889620                       # Transaction distribution (Count)
system.membus.transDist::CleanEvict               449                       # Transaction distribution (Count)
system.membus.transDist::ReadExReq            3922355                       # Transaction distribution (Count)
system.membus.transDist::ReadExResp           3922355                       # Transaction distribution (Count)
system.membus.transDist::ReadSharedReq            610                       # Transaction distribution (Count)
system.membus.pktCount_system.l2.mem_side_port::system.mem_ctrls.port     11735999                       # Packet count per connected requestor and responder (Count)
system.membus.pktCount::total                11735999                       # Packet count per connected requestor and responder (Count)
system.membus.pktSize_system.l2.mem_side_port::system.mem_ctrls.port    500005440                       # Cumulative packet size per connected requestor and responder (Byte)
system.membus.pktSize::total                500005440                       # Cumulative packet size per connected requestor and responder (Byte)
system.membus.snoops                                0                       # Total snoops (Count)
system.membus.snoopTraffic                          0                       # Total snoop traffic (Byte)
system.membus.snoopFanout::samples            3922965                       # Request fanout histogram (Count)
system.membus.snoopFanout::mean                     0                       # Request fanout histogram (Count)
system.membus.snoopFanout::stdev                    0                       # Request fanout histogram (Count)
system.membus.snoopFanout::underflows               0      0.00%      0.00% # Request fanout histogram (Count)
system.membus.snoopFanout::0                  3922965    100.00%    100.00% # Request fanout histogram (Count)
system.membus.snoopFanout::1                        0      0.00%    100.00% # Request fanout histogram (Count)
system.membus.snoopFanout::overflows                0      0.00%    100.00% # Request fanout histogram (Count)
system.membus.snoopFanout::min_value                0                       # Request fanout histogram (Count)
system.membus.snoopFanout::max_value                0                       # Request fanout histogram (Count)
system.membus.snoopFanout::total              3922965                       # Request fanout histogram (Count)
system.membus.power_state.pwrStateResidencyTicks::UNDEFINED 147227704000                       # Cumulative time (in ticks) in various power states (Tick)
system.membus.reqLayer0.occupancy         24996267000                       # Layer occupancy (ticks) (Tick)
system.membus.reqLayer0.utilization               0.2                       # Layer utilization (Ratio)
system.membus.respLayer1.occupancy        20114057500                       # Layer occupancy (ticks) (Tick)
system.membus.respLayer1.utilization              0.1                       # Layer utilization (Ratio)
system.membus.snoop_filter.totRequests        7813034                       # Total number of requests made to the snoop filter. (Count)
system.membus.snoop_filter.hitSingleRequests      3890069                       # Number of requests hitting in the snoop filter with a single holder of the requested data. (Count)
system.membus.snoop_filter.hitMultiRequests            0                       # Number of requests hitting in the snoop filter with multiple (>1) holders of the requested data. (Count)
system.membus.snoop_filter.totSnoops                0                       # Total number of snoops made to the snoop filter. (Count)
system.membus.snoop_filter.hitSingleSnoops            0                       # Number of snoops hitting in the snoop filter with a single holder of the requested data. (Count)
system.membus.snoop_filter.hitMultiSnoops            0                       # Number of snoops hitting in the snoop filter with multiple (>1) holders of the requested data. (Count)
system.tol2bus.transDist::ReadResp                799                       # Transaction distribution (Count)
system.tol2bus.transDist::WritebackDirty      7812113                       # Transaction distribution (Count)
system.tol2bus.transDist::WritebackClean          492                       # Transaction distribution (Count)
system.tol2bus.transDist::CleanEvict              818                       # Transaction distribution (Count)
system.tol2bus.transDist::ReadExReq           3922555                       # Transaction distribution (Count)
system.tol2bus.transDist::ReadExResp          3922553                       # Transaction distribution (Count)
system.tol2bus.transDist::ReadCleanReq            620                       # Transaction distribution (Count)
system.tol2bus.transDist::ReadSharedReq           179                       # Transaction distribution (Count)
system.tol2bus.pktCount_system.cpu.icache.mem_side_port::system.l2.cpu_side_port         1732                       # Packet count per connected requestor and responder (Count)
system.tol2bus.pktCount_system.cpu.dcache.mem_side_port::system.l2.cpu_side_port     11768070                       # Packet count per connected requestor and responder (Count)
system.tol2bus.pktCount::total               11769802                       # Packet count per connected requestor and responder (Count)
system.tol2bus.pktSize_system.cpu.icache.mem_side_port::system.l2.cpu_side_port        71168                       # Cumulative packet size per connected requestor and responder (Byte)
system.tol2bus.pktSize_system.cpu.dcache.mem_side_port::system.l2.cpu_side_port    502094400                       # Cumulative packet size per connected requestor and responder (Byte)
system.tol2bus.pktSize::total               502165568                       # Cumulative packet size per connected requestor and responder (Byte)
system.tol2bus.snoops                         3890327                       # Total snoops (Count)
system.tol2bus.snoopTraffic                 248935680                       # Total snoop traffic (Byte)
system.tol2bus.snoopFanout::samples           7813681                       # Request fanout histogram (Count)
system.tol2bus.snoopFanout::mean             0.000033                       # Request fanout histogram (Count)
system.tol2bus.snoopFanout::stdev            0.005757                       # Request fanout histogram (Count)
system.tol2bus.snoopFanout::underflows              0      0.00%      0.00% # Request fanout histogram (Count)
system.tol2bus.snoopFanout::0                 7813422    100.00%    100.00% # Request fanout histogram (Count)
system.tol2bus.snoopFanout::1                     259      0.00%    100.00% # Request fanout histogram (Count)
system.tol2bus.snoopFanout::2                       0      0.00%    100.00% # Request fanout histogram (Count)
system.tol2bus.snoopFanout::3                       0      0.00%    100.00% # Request fanout histogram (Count)
system.tol2bus.snoopFanout::4                       0      0.00%    100.00% # Request fanout histogram (Count)
system.tol2bus.snoopFanout::overflows               0      0.00%    100.00% # Request fanout histogram (Count)
system.tol2bus.snoopFanout::min_value               0                       # Request fanout histogram (Count)
system.tol2bus.snoopFanout::max_value               1                       # Request fanout histogram (Count)
system.tol2bus.snoopFanout::total             7813681                       # Request fanout histogram (Count)
system.tol2bus.power_state.pwrStateResidencyTicks::UNDEFINED 147227704000                       # Cumulative time (in ticks) in various power states (Tick)
system.tol2bus.reqLayer0.occupancy         7846210000                       # Layer occupancy (ticks) (Tick)
system.tol2bus.reqLayer0.utilization              0.1                       # Layer utilization (Ratio)
system.tol2bus.respLayer0.occupancy            930000                       # Layer occupancy (ticks) (Tick)
system.tol2bus.respLayer0.utilization             0.0                       # Layer utilization (Ratio)
system.tol2bus.respLayer1.occupancy        5884098998                       # Layer occupancy (ticks) (Tick)
system.tol2bus.respLayer1.utilization             0.0                       # Layer utilization (Ratio)
system.tol2bus.snoop_filter.totRequests       7846450                       # Total number of requests made to the snoop filter. (Count)
system.tol2bus.snoop_filter.hitSingleRequests      3923096                       # Number of requests hitting in the snoop filter with a single holder of the requested data. (Count)
system.tol2bus.snoop_filter.hitMultiRequests            1                       # Number of requests hitting in the snoop filter with multiple (>1) holders of the requested data. (Count)
system.tol2bus.snoop_filter.totSnoops             258                       # Total number of snoops made to the snoop filter. (Count)
system.tol2bus.snoop_filter.hitSingleSnoops          258                       # Number of snoops hitting in the snoop filter with a single holder of the requested data. (Count)
system.tol2bus.snoop_filter.hitMultiSnoops            0                       # Number of snoops hitting in the snoop filter with multiple (>1) holders of the requested data. (Count)
system.voltage_domain.voltage                       1                       # Voltage in Volts (Volt)
system.workload.inst.arm                            0                       # number of arm instructions executed (Count)
system.workload.inst.quiesce                        0                       # number of quiesce instructions executed (Count)

---------- End Simulation Statistics   ----------
