
---------- Begin Simulation Statistics ----------
simSeconds                                   0.146695                       # Number of seconds simulated (Second)
simTicks                                 146694530500                       # Number of ticks simulated (Tick)
finalTick                                146694530500                       # Number of ticks from beginning of simulation (restored from checkpoints and never reset) (Tick)
simFreq                                  1000000000000                       # The number of ticks per simulated second ((Tick/Second))
hostSeconds                                    823.38                       # Real time elapsed on the host (Second)
hostTickRate                                178160354                       # The number of ticks simulated per host second (ticks/s) ((Tick/Second))
hostMemory                                     640088                       # Number of bytes of host memory used (Byte)
simInsts                                    100000005                       # Number of instructions simulated (Count)
simOps                                      100000005                       # Number of ops (including micro ops) simulated (Count)
hostInstRate                                   121450                       # Simulator instruction rate (inst/s) ((Count/Second))
hostOpRate                                     121450                       # Simulator op (including micro ops) rate (op/s) ((Count/Second))
system.clk_domain.clock                          1000                       # Clock period in ticks (Tick)
system.cpu.numCycles                        293389062                       # Number of cpu cycles simulated (Cycle)
system.cpu.numWorkItemsStarted                      0                       # Number of work items this cpu started (Count)
system.cpu.numWorkItemsCompleted                    0                       # Number of work items this cpu completed (Count)
system.cpu.instsAdded                       102364314                       # Number of instructions added to the IQ (excludes non-spec) (Count)
system.cpu.nonSpecInstsAdded                       26                       # Number of non-speculative instructions added to the IQ (Count)
system.cpu.instsIssued                      102298822                       # Number of instructions issued (Count)
system.cpu.squashedInstsIssued                    479                       # Number of squashed instructions issued (Count)
system.cpu.squashedInstsExamined              2364333                       # Number of squashed instructions iterated over during squash; mainly for profiling (Count)
system.cpu.squashedOperandsExamined           1614000                       # Number of squashed operands that are examined and possibly removed from graph (Count)
system.cpu.squashedNonSpecRemoved                  10                       # Number of squashed non-spec instructions that were removed (Count)
system.cpu.numIssuedDist::samples           293352872                       # Number of insts issued each cycle (Count)
system.cpu.numIssuedDist::mean               0.348723                       # Number of insts issued each cycle (Count)
system.cpu.numIssuedDist::stdev              1.257261                       # Number of insts issued each cycle (Count)
system.cpu.numIssuedDist::underflows                0      0.00%      0.00% # Number of insts issued each cycle (Count)
system.cpu.numIssuedDist::0                 263088317     89.68%     89.68% # Number of insts issued each cycle (Count)
system.cpu.numIssuedDist::1                   9457414      3.22%     92.91% # Number of insts issued each cycle (Count)
system.cpu.numIssuedDist::2                   7524339      2.56%     95.47% # Number of insts issued each cycle (Count)
system.cpu.numIssuedDist::3                    244608      0.08%     95.56% # Number of insts issued each cycle (Count)
system.cpu.numIssuedDist::4                    273758      0.09%     95.65% # Number of insts issued each cycle (Count)
system.cpu.numIssuedDist::5                    863739      0.29%     95.94% # Number of insts issued each cycle (Count)
system.cpu.numIssuedDist::6                  11705074      3.99%     99.93% # Number of insts issued each cycle (Count)
system.cpu.numIssuedDist::7                    150249      0.05%     99.98% # Number of insts issued each cycle (Count)
system.cpu.numIssuedDist::8                     45374      0.02%    100.00% # Number of insts issued each cycle (Count)
system.cpu.numIssuedDist::overflows                 0      0.00%    100.00% # Number of insts issued each cycle (Count)
system.cpu.numIssuedDist::min_value                 0                       # Number of insts issued each cycle (Count)
system.cpu.numIssuedDist::max_value                 8                       # Number of insts issued each cycle (Count)
system.cpu.numIssuedDist::total             293352872                       # Number of insts issued each cycle (Count)
system.cpu.statFuBusy::No_OpClass                   0      0.00%      0.00% # attempts to use FU when none available (Count)
system.cpu.statFuBusy::IntAlu                   38938     88.64%     88.64% # attempts to use FU when none available (Count)
system.cpu.statFuBusy::IntMult                      0      0.00%     88.64% # attempts to use FU when none available (Count)
system.cpu.statFuBusy::IntDiv                       0      0.00%     88.64% # attempts to use FU when none available (Count)
system.cpu.statFuBusy::FloatAdd                     0      0.00%     88.64% # attempts to use FU when none available (Count)
system.cpu.statFuBusy::FloatCmp                     0      0.00%     88.64% # attempts to use FU when none available (Count)
system.cpu.statFuBusy::FloatCvt                     0      0.00%     88.64% # attempts to use FU when none available (Count)
system.cpu.statFuBusy::FloatMult                    0      0.00%     88.64% # attempts to use FU when none available (Count)
system.cpu.statFuBusy::FloatMultAcc                 0      0.00%     88.64% # attempts to use FU when none available (Count)
system.cpu.statFuBusy::FloatDiv                     0      0.00%     88.64% # attempts to use FU when none available (Count)
system.cpu.statFuBusy::FloatMisc                    0      0.00%     88.64% # attempts to use FU when none available (Count)
system.cpu.statFuBusy::FloatSqrt                    0      0.00%     88.64% # attempts to use FU when none available (Count)
system.cpu.statFuBusy::SimdAdd                      0      0.00%     88.64% # attempts to use FU when none available (Count)
system.cpu.statFuBusy::SimdAddAcc                   0      0.00%     88.64% # attempts to use FU when none available (Count)
system.cpu.statFuBusy::SimdAlu                      0      0.00%     88.64% # attempts to use FU when none available (Count)
system.cpu.statFuBusy::SimdCmp                      0      0.00%     88.64% # attempts to use FU when none available (Count)
system.cpu.statFuBusy::SimdCvt                      0      0.00%     88.64% # attempts to use FU when none available (Count)
system.cpu.statFuBusy::SimdMisc                     0      0.00%     88.64% # attempts to use FU when none available (Count)
system.cpu.statFuBusy::SimdMult                     0      0.00%     88.64% # attempts to use FU when none available (Count)
system.cpu.statFuBusy::SimdMultAcc                  0      0.00%     88.64% # attempts to use FU when none available (Count)
system.cpu.statFuBusy::SimdShift                    0      0.00%     88.64% # attempts to use FU when none available (Count)
system.cpu.statFuBusy::SimdShiftAcc                 0      0.00%     88.64% # attempts to use FU when none available (Count)
system.cpu.statFuBusy::SimdDiv                      0      0.00%     88.64% # attempts to use FU when none available (Count)
system.cpu.statFuBusy::SimdSqrt                     0      0.00%     88.64% # attempts to use FU when none available (Count)
system.cpu.statFuBusy::SimdFloatAdd                 0      0.00%     88.64% # attempts to use FU when none available (Count)
system.cpu.statFuBusy::SimdFloatAlu                 0      0.00%     88.64% # attempts to use FU when none available (Count)
system.cpu.statFuBusy::SimdFloatCmp                 0      0.00%     88.64% # attempts to use FU when none available (Count)
system.cpu.statFuBusy::SimdFloatCvt                 0      0.00%     88.64% # attempts to use FU when none available (Count)
system.cpu.statFuBusy::SimdFloatDiv                 0      0.00%     88.64% # attempts to use FU when none available (Count)
system.cpu.statFuBusy::SimdFloatMisc                0      0.00%     88.64% # attempts to use FU when none available (Count)
system.cpu.statFuBusy::SimdFloatMult                0      0.00%     88.64% # attempts to use FU when none available (Count)
system.cpu.statFuBusy::SimdFloatMultAcc             0      0.00%     88.64% # attempts to use FU when none available (Count)
system.cpu.statFuBusy::SimdFloatSqrt                0      0.00%     88.64% # attempts to use FU when none available (Count)
system.cpu.statFuBusy::SimdReduceAdd                0      0.00%     88.64% # attempts to use FU when none available (Count)
system.cpu.statFuBusy::SimdReduceAlu                0      0.00%     88.64% # attempts to use FU when none available (Count)
system.cpu.statFuBusy::SimdReduceCmp                0      0.00%     88.64% # attempts to use FU when none available (Count)
system.cpu.statFuBusy::SimdFloatReduceAdd            0      0.00%     88.64% # attempts to use FU when none available (Count)
system.cpu.statFuBusy::SimdFloatReduceCmp            0      0.00%     88.64% # attempts to use FU when none available (Count)
system.cpu.statFuBusy::SimdAes                      0      0.00%     88.64% # attempts to use FU when none available (Count)
system.cpu.statFuBusy::SimdAesMix                   0      0.00%     88.64% # attempts to use FU when none available (Count)
system.cpu.statFuBusy::SimdSha1Hash                 0      0.00%     88.64% # attempts to use FU when none available (Count)
system.cpu.statFuBusy::SimdSha1Hash2                0      0.00%     88.64% # attempts to use FU when none available (Count)
system.cpu.statFuBusy::SimdSha256Hash               0      0.00%     88.64% # attempts to use FU when none available (Count)
system.cpu.statFuBusy::SimdSha256Hash2              0      0.00%     88.64% # attempts to use FU when none available (Count)
system.cpu.statFuBusy::SimdShaSigma2                0      0.00%     88.64% # attempts to use FU when none available (Count)
system.cpu.statFuBusy::SimdShaSigma3                0      0.00%     88.64% # attempts to use FU when none available (Count)
system.cpu.statFuBusy::SimdPredAlu                  0      0.00%     88.64% # attempts to use FU when none available (Count)
system.cpu.statFuBusy::MemRead                   4098      9.33%     97.97% # attempts to use FU when none available (Count)
system.cpu.statFuBusy::MemWrite                   893      2.03%    100.00% # attempts to use FU when none available (Count)
system.cpu.statFuBusy::FloatMemRead                 0      0.00%    100.00% # attempts to use FU when none available (Count)
system.cpu.statFuBusy::FloatMemWrite                0      0.00%    100.00% # attempts to use FU when none available (Count)
system.cpu.statFuBusy::IprAccess                    0      0.00%    100.00% # attempts to use FU when none available (Count)
system.cpu.statFuBusy::InstPrefetch                 0      0.00%    100.00% # attempts to use FU when none available (Count)
system.cpu.statIssuedInstType_0::No_OpClass           16      0.00%      0.00% # Number of instructions issued per FU type, per thread (Count)
system.cpu.statIssuedInstType_0::IntAlu      36613194     35.79%     35.79% # Number of instructions issued per FU type, per thread (Count)
system.cpu.statIssuedInstType_0::IntMult            0      0.00%     35.79% # Number of instructions issued per FU type, per thread (Count)
system.cpu.statIssuedInstType_0::IntDiv             0      0.00%     35.79% # Number of instructions issued per FU type, per thread (Count)
system.cpu.statIssuedInstType_0::FloatAdd            0      0.00%     35.79% # Number of instructions issued per FU type, per thread (Count)
system.cpu.statIssuedInstType_0::FloatCmp            0      0.00%     35.79% # Number of instructions issued per FU type, per thread (Count)
system.cpu.statIssuedInstType_0::FloatCvt            0      0.00%     35.79% # Number of instructions issued per FU type, per thread (Count)
system.cpu.statIssuedInstType_0::FloatMult            0      0.00%     35.79% # Number of instructions issued per FU type, per thread (Count)
system.cpu.statIssuedInstType_0::FloatMultAcc            0      0.00%     35.79% # Number of instructions issued per FU type, per thread (Count)
system.cpu.statIssuedInstType_0::FloatDiv            0      0.00%     35.79% # Number of instructions issued per FU type, per thread (Count)
system.cpu.statIssuedInstType_0::FloatMisc            0      0.00%     35.79% # Number of instructions issued per FU type, per thread (Count)
system.cpu.statIssuedInstType_0::FloatSqrt            0      0.00%     35.79% # Number of instructions issued per FU type, per thread (Count)
system.cpu.statIssuedInstType_0::SimdAdd            0      0.00%     35.79% # Number of instructions issued per FU type, per thread (Count)
system.cpu.statIssuedInstType_0::SimdAddAcc            0      0.00%     35.79% # Number of instructions issued per FU type, per thread (Count)
system.cpu.statIssuedInstType_0::SimdAlu            0      0.00%     35.79% # Number of instructions issued per FU type, per thread (Count)
system.cpu.statIssuedInstType_0::SimdCmp            0      0.00%     35.79% # Number of instructions issued per FU type, per thread (Count)
system.cpu.statIssuedInstType_0::SimdCvt            0      0.00%     35.79% # Number of instructions issued per FU type, per thread (Count)
system.cpu.statIssuedInstType_0::SimdMisc            0      0.00%     35.79% # Number of instructions issued per FU type, per thread (Count)
system.cpu.statIssuedInstType_0::SimdMult            0      0.00%     35.79% # Number of instructions issued per FU type, per thread (Count)
system.cpu.statIssuedInstType_0::SimdMultAcc            0      0.00%     35.79% # Number of instructions issued per FU type, per thread (Count)
system.cpu.statIssuedInstType_0::SimdShift            0      0.00%     35.79% # Number of instructions issued per FU type, per thread (Count)
system.cpu.statIssuedInstType_0::SimdShiftAcc            0      0.00%     35.79% # Number of instructions issued per FU type, per thread (Count)
system.cpu.statIssuedInstType_0::SimdDiv            0      0.00%     35.79% # Number of instructions issued per FU type, per thread (Count)
system.cpu.statIssuedInstType_0::SimdSqrt            0      0.00%     35.79% # Number of instructions issued per FU type, per thread (Count)
system.cpu.statIssuedInstType_0::SimdFloatAdd            0      0.00%     35.79% # Number of instructions issued per FU type, per thread (Count)
system.cpu.statIssuedInstType_0::SimdFloatAlu            0      0.00%     35.79% # Number of instructions issued per FU type, per thread (Count)
system.cpu.statIssuedInstType_0::SimdFloatCmp            0      0.00%     35.79% # Number of instructions issued per FU type, per thread (Count)
system.cpu.statIssuedInstType_0::SimdFloatCvt            0      0.00%     35.79% # Number of instructions issued per FU type, per thread (Count)
system.cpu.statIssuedInstType_0::SimdFloatDiv            0      0.00%     35.79% # Number of instructions issued per FU type, per thread (Count)
system.cpu.statIssuedInstType_0::SimdFloatMisc            0      0.00%     35.79% # Number of instructions issued per FU type, per thread (Count)
system.cpu.statIssuedInstType_0::SimdFloatMult            0      0.00%     35.79% # Number of instructions issued per FU type, per thread (Count)
system.cpu.statIssuedInstType_0::SimdFloatMultAcc            0      0.00%     35.79% # Number of instructions issued per FU type, per thread (Count)
system.cpu.statIssuedInstType_0::SimdFloatSqrt            0      0.00%     35.79% # Number of instructions issued per FU type, per thread (Count)
system.cpu.statIssuedInstType_0::SimdReduceAdd            0      0.00%     35.79% # Number of instructions issued per FU type, per thread (Count)
system.cpu.statIssuedInstType_0::SimdReduceAlu            0      0.00%     35.79% # Number of instructions issued per FU type, per thread (Count)
system.cpu.statIssuedInstType_0::SimdReduceCmp            0      0.00%     35.79% # Number of instructions issued per FU type, per thread (Count)
system.cpu.statIssuedInstType_0::SimdFloatReduceAdd            0      0.00%     35.79% # Number of instructions issued per FU type, per thread (Count)
system.cpu.statIssuedInstType_0::SimdFloatReduceCmp            0      0.00%     35.79% # Number of instructions issued per FU type, per thread (Count)
system.cpu.statIssuedInstType_0::SimdAes            0      0.00%     35.79% # Number of instructions issued per FU type, per thread (Count)
system.cpu.statIssuedInstType_0::SimdAesMix            0      0.00%     35.79% # Number of instructions issued per FU type, per thread (Count)
system.cpu.statIssuedInstType_0::SimdSha1Hash            0      0.00%     35.79% # Number of instructions issued per FU type, per thread (Count)
system.cpu.statIssuedInstType_0::SimdSha1Hash2            0      0.00%     35.79% # Number of instructions issued per FU type, per thread (Count)
system.cpu.statIssuedInstType_0::SimdSha256Hash            0      0.00%     35.79% # Number of instructions issued per FU type, per thread (Count)
system.cpu.statIssuedInstType_0::SimdSha256Hash2            0      0.00%     35.79% # Number of instructions issued per FU type, per thread (Count)
system.cpu.statIssuedInstType_0::SimdShaSigma2            0      0.00%     35.79% # Number of instructions issued per FU type, per thread (Count)
system.cpu.statIssuedInstType_0::SimdShaSigma3            0      0.00%     35.79% # Number of instructions issued per FU type, per thread (Count)
system.cpu.statIssuedInstType_0::SimdPredAlu            0      0.00%     35.79% # Number of instructions issued per FU type, per thread (Count)
system.cpu.statIssuedInstType_0::MemRead      1343694      1.31%     37.10% # Number of instructions issued per FU type, per thread (Count)
system.cpu.statIssuedInstType_0::MemWrite     64341918     62.90%    100.00% # Number of instructions issued per FU type, per thread (Count)
system.cpu.statIssuedInstType_0::FloatMemRead            0      0.00%    100.00% # Number of instructions issued per FU type, per thread (Count)
system.cpu.statIssuedInstType_0::FloatMemWrite            0      0.00%    100.00% # Number of instructions issued per FU type, per thread (Count)
system.cpu.statIssuedInstType_0::IprAccess            0      0.00%    100.00% # Number of instructions issued per FU type, per thread (Count)
system.cpu.statIssuedInstType_0::InstPrefetch            0      0.00%    100.00% # Number of instructions issued per FU type, per thread (Count)
system.cpu.statIssuedInstType_0::total      102298822                       # Number of instructions issued per FU type, per thread (Count)
system.cpu.issueRate                         0.348680                       # Inst issue rate ((Count/Cycle))
system.cpu.fuBusy                               43929                       # FU busy when requested (Count)
system.cpu.fuBusyRate                        0.000429                       # FU busy rate (busy events/executed inst) ((Count/Count))
system.cpu.intInstQueueReads                497994924                       # Number of integer instruction queue reads (Count)
system.cpu.intInstQueueWrites               104728792                       # Number of integer instruction queue writes (Count)
system.cpu.intInstQueueWakeupAccesses       101528460                       # Number of integer instruction queue wakeup accesses (Count)
system.cpu.fpInstQueueReads                         0                       # Number of floating instruction queue reads (Count)
system.cpu.fpInstQueueWrites                        0                       # Number of floating instruction queue writes (Count)
system.cpu.fpInstQueueWakeupAccesses                0                       # Number of floating instruction queue wakeup accesses (Count)
system.cpu.vecInstQueueReads                        0                       # Number of vector instruction queue reads (Count)
system.cpu.vecInstQueueWrites                       0                       # Number of vector instruction queue writes (Count)
system.cpu.vecInstQueueWakeupAccesses               0                       # Number of vector instruction queue wakeup accesses (Count)
system.cpu.intAluAccesses                   102342735                       # Number of integer alu accesses (Count)
system.cpu.fpAluAccesses                            0                       # Number of floating point alu accesses (Count)
system.cpu.vecAluAccesses                           0                       # Number of vector alu accesses (Count)
system.cpu.idleCycles                               0                       # Number of cycles IEW is idle (Cycle)
system.cpu.squashCycles                         49078                       # Number of cycles IEW is squashing (Cycle)
system.cpu.blockCycles                         207134                       # Number of cycles IEW is blocking (Cycle)
system.cpu.unblockCycles                         6961                       # Number of cycles IEW is unblocking (Cycle)
system.cpu.dispatchedInsts                  102364340                       # Number of instructions dispatched to IQ (Count)
system.cpu.dispSquashedInsts                      992                       # Number of squashed instructions skipped by dispatch (Count)
system.cpu.dispLoadInsts                      1348446                       # Number of dispatched load instructions (Count)
system.cpu.dispStoreInsts                    64347479                       # Number of dispatched store instructions (Count)
system.cpu.dispNonSpecInsts                        26                       # Number of dispatched non-speculative instructions (Count)
system.cpu.iqFullEvents                            67                       # Number of times the IQ has become full, causing a stall (Count)
system.cpu.lsqFullEvents                         6042                       # Number of times the LSQ has become full, causing a stall (Count)
system.cpu.memOrderViolationEvents                120                       # Number of memory order violations (Count)
system.cpu.predictedTakenIncorrect               2744                       # Number of branches that were predicted taken incorrectly (Count)
system.cpu.predictedNotTakenIncorrect            2533                       # Number of branches that were predicted not taken incorrectly (Count)
system.cpu.branchMispredicts                     5277                       # Number of branch mispredicts detected at execute (Count)
system.cpu.numInsts                         102286548                       # Number of executed instructions (Count)
system.cpu.numLoadInsts                       1338860                       # Number of load instructions executed (Count)
system.cpu.numSquashedInsts                     12274                       # Number of squashed instructions skipped in execute (Count)
system.cpu.numSwp                                   0                       # Number of swp insts executed (Count)
system.cpu.numNop                                   0                       # Number of nop insts executed (Count)
system.cpu.numRefs                           65679861                       # Number of memory reference insts executed (Count)
system.cpu.numBranches                       16205856                       # Number of branches executed (Count)
system.cpu.numStoreInsts                     64341001                       # Number of stores executed (Count)
system.cpu.numRate                           0.348638                       # Inst execution rate ((Count/Cycle))
system.cpu.instsToCommit                    102277531                       # Cumulative count of insts sent to commit (Count)
system.cpu.writebackCount                   101528460                       # Cumulative count of insts written-back (Count)
system.cpu.producerInst                      21629254                       # Number of instructions producing a value (Count)
system.cpu.consumerInst                      83706921                       # Number of instructions consuming a value (Count)
system.cpu.wbRate                            0.346054                       # Insts written-back per cycle ((Count/Cycle))
system.cpu.wbFanout                          0.258393                       # Average fanout of values written-back ((Count/Count))
system.cpu.timesIdled                             287                       # Number of times that the entire CPU went into an idle state and unscheduled itself (Count)
system.cpu.idleCycles                           36190                       # Total number of cycles that the CPU has spent unscheduled due to idling (Cycle)
system.cpu.committedInsts                   100000005                       # Number of Instructions Simulated (Count)
system.cpu.committedOps                     100000005                       # Number of Ops (including micro ops) Simulated (Count)
system.cpu.cpi                               2.933890                       # CPI: Cycles Per Instruction ((Cycle/Count))
system.cpu.totalCpi                          2.933890                       # CPI: Total CPI of All Threads ((Cycle/Count))
system.cpu.ipc                               0.340844                       # IPC: Instructions Per Cycle ((Count/Cycle))
system.cpu.totalIpc                          0.340844                       # IPC: Total IPC of All Threads ((Count/Cycle))
system.cpu.intRegfileReads                  183715703                       # Number of integer regfile reads (Count)
system.cpu.intRegfileWrites                  21739356                       # Number of integer regfile writes (Count)
system.cpu.miscRegfileReads                        16                       # number of misc regfile reads (Count)
system.cpu.MemDepUnit__0.insertedLoads        1348446                       # Number of loads inserted to the mem dependence unit. (Count)
system.cpu.MemDepUnit__0.insertedStores      64347479                       # Number of stores inserted to the mem dependence unit. (Count)
system.cpu.MemDepUnit__0.conflictingLoads       118417                       # Number of conflicting loads. (Count)
system.cpu.MemDepUnit__0.conflictingStores         8108                       # Number of conflicting stores. (Count)
system.cpu.MemDepUnit__1.insertedLoads              0                       # Number of loads inserted to the mem dependence unit. (Count)
system.cpu.MemDepUnit__1.insertedStores             0                       # Number of stores inserted to the mem dependence unit. (Count)
system.cpu.MemDepUnit__1.conflictingLoads            0                       # Number of conflicting loads. (Count)
system.cpu.MemDepUnit__1.conflictingStores            0                       # Number of conflicting stores. (Count)
system.cpu.MemDepUnit__2.insertedLoads              0                       # Number of loads inserted to the mem dependence unit. (Count)
system.cpu.MemDepUnit__2.insertedStores             0                       # Number of stores inserted to the mem dependence unit. (Count)
system.cpu.MemDepUnit__2.conflictingLoads            0                       # Number of conflicting loads. (Count)
system.cpu.MemDepUnit__2.conflictingStores            0                       # Number of conflicting stores. (Count)
system.cpu.MemDepUnit__3.insertedLoads              0                       # Number of loads inserted to the mem dependence unit. (Count)
system.cpu.MemDepUnit__3.insertedStores             0                       # Number of stores inserted to the mem dependence unit. (Count)
system.cpu.MemDepUnit__3.conflictingLoads            0                       # Number of conflicting loads. (Count)
system.cpu.MemDepUnit__3.conflictingStores            0                       # Number of conflicting stores. (Count)
system.cpu.branchPred.lookups                16569303                       # Number of BP lookups (Count)
system.cpu.branchPred.condPredicted          16558920                       # Number of conditional branches predicted (Count)
system.cpu.branchPred.condIncorrect              5314                       # Number of conditional branches incorrect (Count)
system.cpu.branchPred.BTBLookups             16516819                       # Number of BTB lookups (Count)
system.cpu.branchPred.BTBHits                16515595                       # Number of BTB hits (Count)
system.cpu.branchPred.BTBMissPct             0.000074                       # BTB Miss Percentage (Ratio)
system.cpu.branchPred.BTBHitRatio            0.999926                       # BTB Hit Ratio (Ratio)
system.cpu.branchPred.RASUsed                       0                       # Number of times the RAS was used to get a target. (Count)
system.cpu.branchPred.RASIncorrect                  0                       # Number of incorrect RAS predictions. (Count)
system.cpu.branchPred.indirectLookups            3686                       # Number of indirect predictor lookups. (Count)
system.cpu.branchPred.indirectHits               2582                       # Number of indirect target hits. (Count)
system.cpu.branchPred.indirectMisses             1104                       # Number of indirect misses. (Count)
system.cpu.branchPred.indirectMispredicted          370                       # Number of mispredicted indirect branches. (Count)
system.cpu.commit.commitSquashedInsts         1353683                       # The number of squashed insts skipped by commit (Count)
system.cpu.commit.commitNonSpecStalls              16                       # The number of times commit has been forced to stall to communicate backwards (Count)
system.cpu.commit.branchMispredicts              5002                       # The number of times a branch was mispredicted (Count)
system.cpu.commit.numCommittedDist::samples    293147341                       # Number of insts commited each cycle (Count)
system.cpu.commit.numCommittedDist::mean     0.341125                       # Number of insts commited each cycle (Count)
system.cpu.commit.numCommittedDist::stdev     1.258828                       # Number of insts commited each cycle (Count)
system.cpu.commit.numCommittedDist::underflows            0      0.00%      0.00% # Number of insts commited each cycle (Count)
system.cpu.commit.numCommittedDist::0       263671507     89.95%     89.95% # Number of insts commited each cycle (Count)
system.cpu.commit.numCommittedDist::1         9602559      3.28%     93.22% # Number of insts commited each cycle (Count)
system.cpu.commit.numCommittedDist::2         7233465      2.47%     95.69% # Number of insts commited each cycle (Count)
system.cpu.commit.numCommittedDist::3          104670      0.04%     95.72% # Number of insts commited each cycle (Count)
system.cpu.commit.numCommittedDist::4            9103      0.00%     95.73% # Number of insts commited each cycle (Count)
system.cpu.commit.numCommittedDist::5          734337      0.25%     95.98% # Number of insts commited each cycle (Count)
system.cpu.commit.numCommittedDist::6        11187162      3.82%     99.79% # Number of insts commited each cycle (Count)
system.cpu.commit.numCommittedDist::7           50867      0.02%     99.81% # Number of insts commited each cycle (Count)
system.cpu.commit.numCommittedDist::8          553671      0.19%    100.00% # Number of insts commited each cycle (Count)
system.cpu.commit.numCommittedDist::overflows            0      0.00%    100.00% # Number of insts commited each cycle (Count)
system.cpu.commit.numCommittedDist::min_value            0                       # Number of insts commited each cycle (Count)
system.cpu.commit.numCommittedDist::max_value            8                       # Number of insts commited each cycle (Count)
system.cpu.commit.numCommittedDist::total    293147341                       # Number of insts commited each cycle (Count)
system.cpu.commit.instsCommitted            100000005                       # Number of instructions committed (Count)
system.cpu.commit.opsCommitted              100000005                       # Number of ops (including micro ops) committed (Count)
system.cpu.commit.memRefs                    64194491                       # Number of memory references committed (Count)
system.cpu.commit.loads                       1305861                       # Number of loads committed (Count)
system.cpu.commit.amos                              0                       # Number of atomic instructions committed (Count)
system.cpu.commit.membars                           0                       # Number of memory barriers committed (Count)
system.cpu.commit.branches                   15851233                       # Number of branches committed (Count)
system.cpu.commit.vectorInstructions                0                       # Number of committed Vector instructions. (Count)
system.cpu.commit.floating                          0                       # Number of committed floating point instructions. (Count)
system.cpu.commit.integer                   100000005                       # Number of committed integer instructions. (Count)
system.cpu.commit.functionCalls                  7277                       # Number of function calls committed. (Count)
system.cpu.commit.committedInstType_0::No_OpClass            0      0.00%      0.00% # Class of committed instruction (Count)
system.cpu.commit.committedInstType_0::IntAlu     35805514     35.81%     35.81% # Class of committed instruction (Count)
system.cpu.commit.committedInstType_0::IntMult            0      0.00%     35.81% # Class of committed instruction (Count)
system.cpu.commit.committedInstType_0::IntDiv            0      0.00%     35.81% # Class of committed instruction (Count)
system.cpu.commit.committedInstType_0::FloatAdd            0      0.00%     35.81% # Class of committed instruction (Count)
system.cpu.commit.committedInstType_0::FloatCmp            0      0.00%     35.81% # Class of committed instruction (Count)
system.cpu.commit.committedInstType_0::FloatCvt            0      0.00%     35.81% # Class of committed instruction (Count)
system.cpu.commit.committedInstType_0::FloatMult            0      0.00%     35.81% # Class of committed instruction (Count)
system.cpu.commit.committedInstType_0::FloatMultAcc            0      0.00%     35.81% # Class of committed instruction (Count)
system.cpu.commit.committedInstType_0::FloatDiv            0      0.00%     35.81% # Class of committed instruction (Count)
system.cpu.commit.committedInstType_0::FloatMisc            0      0.00%     35.81% # Class of committed instruction (Count)
system.cpu.commit.committedInstType_0::FloatSqrt            0      0.00%     35.81% # Class of committed instruction (Count)
system.cpu.commit.committedInstType_0::SimdAdd            0      0.00%     35.81% # Class of committed instruction (Count)
system.cpu.commit.committedInstType_0::SimdAddAcc            0      0.00%     35.81% # Class of committed instruction (Count)
system.cpu.commit.committedInstType_0::SimdAlu            0      0.00%     35.81% # Class of committed instruction (Count)
system.cpu.commit.committedInstType_0::SimdCmp            0      0.00%     35.81% # Class of committed instruction (Count)
system.cpu.commit.committedInstType_0::SimdCvt            0      0.00%     35.81% # Class of committed instruction (Count)
system.cpu.commit.committedInstType_0::SimdMisc            0      0.00%     35.81% # Class of committed instruction (Count)
system.cpu.commit.committedInstType_0::SimdMult            0      0.00%     35.81% # Class of committed instruction (Count)
system.cpu.commit.committedInstType_0::SimdMultAcc            0      0.00%     35.81% # Class of committed instruction (Count)
system.cpu.commit.committedInstType_0::SimdShift            0      0.00%     35.81% # Class of committed instruction (Count)
system.cpu.commit.committedInstType_0::SimdShiftAcc            0      0.00%     35.81% # Class of committed instruction (Count)
system.cpu.commit.committedInstType_0::SimdDiv            0      0.00%     35.81% # Class of committed instruction (Count)
system.cpu.commit.committedInstType_0::SimdSqrt            0      0.00%     35.81% # Class of committed instruction (Count)
system.cpu.commit.committedInstType_0::SimdFloatAdd            0      0.00%     35.81% # Class of committed instruction (Count)
system.cpu.commit.committedInstType_0::SimdFloatAlu            0      0.00%     35.81% # Class of committed instruction (Count)
system.cpu.commit.committedInstType_0::SimdFloatCmp            0      0.00%     35.81% # Class of committed instruction (Count)
system.cpu.commit.committedInstType_0::SimdFloatCvt            0      0.00%     35.81% # Class of committed instruction (Count)
system.cpu.commit.committedInstType_0::SimdFloatDiv            0      0.00%     35.81% # Class of committed instruction (Count)
system.cpu.commit.committedInstType_0::SimdFloatMisc            0      0.00%     35.81% # Class of committed instruction (Count)
system.cpu.commit.committedInstType_0::SimdFloatMult            0      0.00%     35.81% # Class of committed instruction (Count)
system.cpu.commit.committedInstType_0::SimdFloatMultAcc            0      0.00%     35.81% # Class of committed instruction (Count)
system.cpu.commit.committedInstType_0::SimdFloatSqrt            0      0.00%     35.81% # Class of committed instruction (Count)
system.cpu.commit.committedInstType_0::SimdReduceAdd            0      0.00%     35.81% # Class of committed instruction (Count)
system.cpu.commit.committedInstType_0::SimdReduceAlu            0      0.00%     35.81% # Class of committed instruction (Count)
system.cpu.commit.committedInstType_0::SimdReduceCmp            0      0.00%     35.81% # Class of committed instruction (Count)
system.cpu.commit.committedInstType_0::SimdFloatReduceAdd            0      0.00%     35.81% # Class of committed instruction (Count)
system.cpu.commit.committedInstType_0::SimdFloatReduceCmp            0      0.00%     35.81% # Class of committed instruction (Count)
system.cpu.commit.committedInstType_0::SimdAes            0      0.00%     35.81% # Class of committed instruction (Count)
system.cpu.commit.committedInstType_0::SimdAesMix            0      0.00%     35.81% # Class of committed instruction (Count)
system.cpu.commit.committedInstType_0::SimdSha1Hash            0      0.00%     35.81% # Class of committed instruction (Count)
system.cpu.commit.committedInstType_0::SimdSha1Hash2            0      0.00%     35.81% # Class of committed instruction (Count)
system.cpu.commit.committedInstType_0::SimdSha256Hash            0      0.00%     35.81% # Class of committed instruction (Count)
system.cpu.commit.committedInstType_0::SimdSha256Hash2            0      0.00%     35.81% # Class of committed instruction (Count)
system.cpu.commit.committedInstType_0::SimdShaSigma2            0      0.00%     35.81% # Class of committed instruction (Count)
system.cpu.commit.committedInstType_0::SimdShaSigma3            0      0.00%     35.81% # Class of committed instruction (Count)
system.cpu.commit.committedInstType_0::SimdPredAlu            0      0.00%     35.81% # Class of committed instruction (Count)
system.cpu.commit.committedInstType_0::MemRead      1305861      1.31%     37.11% # Class of committed instruction (Count)
system.cpu.commit.committedInstType_0::MemWrite     62888630     62.89%    100.00% # Class of committed instruction (Count)
system.cpu.commit.committedInstType_0::FloatMemRead            0      0.00%    100.00% # Class of committed instruction (Count)
system.cpu.commit.committedInstType_0::FloatMemWrite            0      0.00%    100.00% # Class of committed instruction (Count)
system.cpu.commit.committedInstType_0::IprAccess            0      0.00%    100.00% # Class of committed instruction (Count)
system.cpu.commit.committedInstType_0::InstPrefetch            0      0.00%    100.00% # Class of committed instruction (Count)
system.cpu.commit.committedInstType_0::total    100000005                       # Class of committed instruction (Count)
system.cpu.commit.commitEligibleSamples        553671                       # number cycles where commit BW limit reached (Cycle)
system.cpu.dcache.demandHits::cpu.data        1337623                       # number of demand (read+write) hits (Count)
system.cpu.dcache.demandHits::total           1337623                       # number of demand (read+write) hits (Count)
system.cpu.dcache.overallHits::cpu.data       1337623                       # number of overall hits (Count)
system.cpu.dcache.overallHits::total          1337623                       # number of overall hits (Count)
system.cpu.dcache.demandMisses::cpu.data     62719316                       # number of demand (read+write) misses (Count)
system.cpu.dcache.demandMisses::total        62719316                       # number of demand (read+write) misses (Count)
system.cpu.dcache.overallMisses::cpu.data     62719316                       # number of overall misses (Count)
system.cpu.dcache.overallMisses::total       62719316                       # number of overall misses (Count)
system.cpu.dcache.demandMissLatency::cpu.data 4414501262488                       # number of demand (read+write) miss ticks (Tick)
system.cpu.dcache.demandMissLatency::total 4414501262488                       # number of demand (read+write) miss ticks (Tick)
system.cpu.dcache.overallMissLatency::cpu.data 4414501262488                       # number of overall miss ticks (Tick)
system.cpu.dcache.overallMissLatency::total 4414501262488                       # number of overall miss ticks (Tick)
system.cpu.dcache.demandAccesses::cpu.data     64056939                       # number of demand (read+write) accesses (Count)
system.cpu.dcache.demandAccesses::total      64056939                       # number of demand (read+write) accesses (Count)
system.cpu.dcache.overallAccesses::cpu.data     64056939                       # number of overall (read+write) accesses (Count)
system.cpu.dcache.overallAccesses::total     64056939                       # number of overall (read+write) accesses (Count)
system.cpu.dcache.demandMissRate::cpu.data     0.979118                       # miss rate for demand accesses (Ratio)
system.cpu.dcache.demandMissRate::total      0.979118                       # miss rate for demand accesses (Ratio)
system.cpu.dcache.overallMissRate::cpu.data     0.979118                       # miss rate for overall accesses (Ratio)
system.cpu.dcache.overallMissRate::total     0.979118                       # miss rate for overall accesses (Ratio)
system.cpu.dcache.demandAvgMissLatency::cpu.data 70385.035170                       # average overall miss latency ((Cycle/Count))
system.cpu.dcache.demandAvgMissLatency::total 70385.035170                       # average overall miss latency ((Cycle/Count))
system.cpu.dcache.overallAvgMissLatency::cpu.data 70385.035170                       # average overall miss latency ((Cycle/Count))
system.cpu.dcache.overallAvgMissLatency::total 70385.035170                       # average overall miss latency ((Cycle/Count))
system.cpu.dcache.blockedCycles::no_mshrs        60705                       # number of cycles access was blocked (Cycle)
system.cpu.dcache.blockedCycles::no_targets          838                       # number of cycles access was blocked (Cycle)
system.cpu.dcache.blockedCauses::no_mshrs          617                       # number of times access was blocked (Count)
system.cpu.dcache.blockedCauses::no_targets            6                       # number of times access was blocked (Count)
system.cpu.dcache.avgBlocked::no_mshrs      98.387358                       # average number of cycles each access was blocked ((Cycle/Count))
system.cpu.dcache.avgBlocked::no_targets   139.666667                       # average number of cycles each access was blocked ((Cycle/Count))
system.cpu.dcache.writebacks::writebacks      3921547                       # number of writebacks (Count)
system.cpu.dcache.writebacks::total           3921547                       # number of writebacks (Count)
system.cpu.dcache.demandMshrHits::cpu.data     58796643                       # number of demand (read+write) MSHR hits (Count)
system.cpu.dcache.demandMshrHits::total      58796643                       # number of demand (read+write) MSHR hits (Count)
system.cpu.dcache.overallMshrHits::cpu.data     58796643                       # number of overall MSHR hits (Count)
system.cpu.dcache.overallMshrHits::total     58796643                       # number of overall MSHR hits (Count)
system.cpu.dcache.demandMshrMisses::cpu.data      3922673                       # number of demand (read+write) MSHR misses (Count)
system.cpu.dcache.demandMshrMisses::total      3922673                       # number of demand (read+write) MSHR misses (Count)
system.cpu.dcache.overallMshrMisses::cpu.data      3922673                       # number of overall MSHR misses (Count)
system.cpu.dcache.overallMshrMisses::total      3922673                       # number of overall MSHR misses (Count)
system.cpu.dcache.demandMshrMissLatency::cpu.data 397297575994                       # number of demand (read+write) MSHR miss ticks (Tick)
system.cpu.dcache.demandMshrMissLatency::total 397297575994                       # number of demand (read+write) MSHR miss ticks (Tick)
system.cpu.dcache.overallMshrMissLatency::cpu.data 397297575994                       # number of overall MSHR miss ticks (Tick)
system.cpu.dcache.overallMshrMissLatency::total 397297575994                       # number of overall MSHR miss ticks (Tick)
system.cpu.dcache.demandMshrMissRate::cpu.data     0.061237                       # mshr miss ratio for demand accesses (Ratio)
system.cpu.dcache.demandMshrMissRate::total     0.061237                       # mshr miss ratio for demand accesses (Ratio)
system.cpu.dcache.overallMshrMissRate::cpu.data     0.061237                       # mshr miss ratio for overall accesses (Ratio)
system.cpu.dcache.overallMshrMissRate::total     0.061237                       # mshr miss ratio for overall accesses (Ratio)
system.cpu.dcache.demandAvgMshrMissLatency::cpu.data 101282.359247                       # average overall mshr miss latency ((Cycle/Count))
system.cpu.dcache.demandAvgMshrMissLatency::total 101282.359247                       # average overall mshr miss latency ((Cycle/Count))
system.cpu.dcache.overallAvgMshrMissLatency::cpu.data 101282.359247                       # average overall mshr miss latency ((Cycle/Count))
system.cpu.dcache.overallAvgMshrMissLatency::total 101282.359247                       # average overall mshr miss latency ((Cycle/Count))
system.cpu.dcache.replacements                3921647                       # number of replacements (Count)
system.cpu.dcache.ReadReq.hits::cpu.data      1167926                       # number of ReadReq hits (Count)
system.cpu.dcache.ReadReq.hits::total         1167926                       # number of ReadReq hits (Count)
system.cpu.dcache.ReadReq.misses::cpu.data          391                       # number of ReadReq misses (Count)
system.cpu.dcache.ReadReq.misses::total           391                       # number of ReadReq misses (Count)
system.cpu.dcache.ReadReq.missLatency::cpu.data     32019000                       # number of ReadReq miss ticks (Tick)
system.cpu.dcache.ReadReq.missLatency::total     32019000                       # number of ReadReq miss ticks (Tick)
system.cpu.dcache.ReadReq.accesses::cpu.data      1168317                       # number of ReadReq accesses(hits+misses) (Count)
system.cpu.dcache.ReadReq.accesses::total      1168317                       # number of ReadReq accesses(hits+misses) (Count)
system.cpu.dcache.ReadReq.missRate::cpu.data     0.000335                       # miss rate for ReadReq accesses (Ratio)
system.cpu.dcache.ReadReq.missRate::total     0.000335                       # miss rate for ReadReq accesses (Ratio)
system.cpu.dcache.ReadReq.avgMissLatency::cpu.data 81890.025575                       # average ReadReq miss latency ((Tick/Count))
system.cpu.dcache.ReadReq.avgMissLatency::total 81890.025575                       # average ReadReq miss latency ((Tick/Count))
system.cpu.dcache.ReadReq.mshrHits::cpu.data          261                       # number of ReadReq MSHR hits (Count)
system.cpu.dcache.ReadReq.mshrHits::total          261                       # number of ReadReq MSHR hits (Count)
system.cpu.dcache.ReadReq.mshrMisses::cpu.data          130                       # number of ReadReq MSHR misses (Count)
system.cpu.dcache.ReadReq.mshrMisses::total          130                       # number of ReadReq MSHR misses (Count)
system.cpu.dcache.ReadReq.mshrMissLatency::cpu.data     12675500                       # number of ReadReq MSHR miss ticks (Tick)
system.cpu.dcache.ReadReq.mshrMissLatency::total     12675500                       # number of ReadReq MSHR miss ticks (Tick)
system.cpu.dcache.ReadReq.mshrMissRate::cpu.data     0.000111                       # mshr miss rate for ReadReq accesses (Ratio)
system.cpu.dcache.ReadReq.mshrMissRate::total     0.000111                       # mshr miss rate for ReadReq accesses (Ratio)
system.cpu.dcache.ReadReq.avgMshrMissLatency::cpu.data 97503.846154                       # average ReadReq mshr miss latency ((Tick/Count))
system.cpu.dcache.ReadReq.avgMshrMissLatency::total 97503.846154                       # average ReadReq mshr miss latency ((Tick/Count))
system.cpu.dcache.WriteReq.hits::cpu.data       169697                       # number of WriteReq hits (Count)
system.cpu.dcache.WriteReq.hits::total         169697                       # number of WriteReq hits (Count)
system.cpu.dcache.WriteReq.misses::cpu.data     62718925                       # number of WriteReq misses (Count)
system.cpu.dcache.WriteReq.misses::total     62718925                       # number of WriteReq misses (Count)
system.cpu.dcache.WriteReq.missLatency::cpu.data 4414469243488                       # number of WriteReq miss ticks (Tick)
system.cpu.dcache.WriteReq.missLatency::total 4414469243488                       # number of WriteReq miss ticks (Tick)
system.cpu.dcache.WriteReq.accesses::cpu.data     62888622                       # number of WriteReq accesses(hits+misses) (Count)
system.cpu.dcache.WriteReq.accesses::total     62888622                       # number of WriteReq accesses(hits+misses) (Count)
system.cpu.dcache.WriteReq.missRate::cpu.data     0.997302                       # miss rate for WriteReq accesses (Ratio)
system.cpu.dcache.WriteReq.missRate::total     0.997302                       # miss rate for WriteReq accesses (Ratio)
system.cpu.dcache.WriteReq.avgMissLatency::cpu.data 70384.963446                       # average WriteReq miss latency ((Tick/Count))
system.cpu.dcache.WriteReq.avgMissLatency::total 70384.963446                       # average WriteReq miss latency ((Tick/Count))
system.cpu.dcache.WriteReq.mshrHits::cpu.data     58796382                       # number of WriteReq MSHR hits (Count)
system.cpu.dcache.WriteReq.mshrHits::total     58796382                       # number of WriteReq MSHR hits (Count)
system.cpu.dcache.WriteReq.mshrMisses::cpu.data      3922543                       # number of WriteReq MSHR misses (Count)
system.cpu.dcache.WriteReq.mshrMisses::total      3922543                       # number of WriteReq MSHR misses (Count)
system.cpu.dcache.WriteReq.mshrMissLatency::cpu.data 397284900494                       # number of WriteReq MSHR miss ticks (Tick)
system.cpu.dcache.WriteReq.mshrMissLatency::total 397284900494                       # number of WriteReq MSHR miss ticks (Tick)
system.cpu.dcache.WriteReq.mshrMissRate::cpu.data     0.062373                       # mshr miss rate for WriteReq accesses (Ratio)
system.cpu.dcache.WriteReq.mshrMissRate::total     0.062373                       # mshr miss rate for WriteReq accesses (Ratio)
system.cpu.dcache.WriteReq.avgMshrMissLatency::cpu.data 101282.484473                       # average WriteReq mshr miss latency ((Tick/Count))
system.cpu.dcache.WriteReq.avgMshrMissLatency::total 101282.484473                       # average WriteReq mshr miss latency ((Tick/Count))
system.cpu.dcache.power_state.pwrStateResidencyTicks::UNDEFINED 146694530500                       # Cumulative time (in ticks) in various power states (Tick)
system.cpu.dcache.tags.tagsInUse          1023.897794                       # Average ticks per tags in use ((Tick/Count))
system.cpu.dcache.tags.totalRefs              5260294                       # Total number of references to valid blocks. (Count)
system.cpu.dcache.tags.sampledRefs            3922671                       # Sample count of references to valid blocks. (Count)
system.cpu.dcache.tags.avgRefs               1.340998                       # Average number of references to valid blocks. ((Count/Count))
system.cpu.dcache.tags.warmupTick              349500                       # The tick when the warmup percentage was hit. (Tick)
system.cpu.dcache.tags.occupancies::cpu.data  1023.897794                       # Average occupied blocks per tick, per requestor ((Count/Tick))
system.cpu.dcache.tags.avgOccs::cpu.data     0.999900                       # Average percentage of cache occupancy ((Ratio/Tick))
system.cpu.dcache.tags.avgOccs::total        0.999900                       # Average percentage of cache occupancy ((Ratio/Tick))
system.cpu.dcache.tags.occupanciesTaskId::1024         1024                       # Occupied blocks per task id (Count)
system.cpu.dcache.tags.ageTaskId_1024::0          264                       # Occupied blocks per task id, per block age (Count)
system.cpu.dcache.tags.ageTaskId_1024::1          760                       # Occupied blocks per task id, per block age (Count)
system.cpu.dcache.tags.ratioOccsTaskId::1024            1                       # Ratio of occupied blocks and all blocks, per task id (Ratio)
system.cpu.dcache.tags.tagAccesses          516378183                       # Number of tag accesses (Count)
system.cpu.dcache.tags.dataAccesses         516378183                       # Number of data accesses (Count)
system.cpu.dcache.tags.power_state.pwrStateResidencyTicks::UNDEFINED 146694530500                       # Cumulative time (in ticks) in various power states (Tick)
system.cpu.decode.idleCycles                  4434441                       # Number of cycles decode is idle (Cycle)
system.cpu.decode.blockedCycles             275894589                       # Number of cycles decode is blocked (Cycle)
system.cpu.decode.runCycles                   2137492                       # Number of cycles decode is running (Cycle)
system.cpu.decode.unblockCycles              10837272                       # Number of cycles decode is unblocking (Cycle)
system.cpu.decode.squashCycles                  49078                       # Number of cycles decode is squashing (Cycle)
system.cpu.decode.branchResolved             16163414                       # Number of times decode resolved a branch (Count)
system.cpu.decode.branchMispred                   320                       # Number of times decode detected a branch misprediction (Count)
system.cpu.decode.decodedInsts              102471942                       # Number of instructions handled by decode (Count)
system.cpu.decode.squashedInsts                  1236                       # Number of squashed instructions handled by decode (Count)
system.cpu.dtb_walker_cache.blockedCycles::no_mshrs            0                       # number of cycles access was blocked (Cycle)
system.cpu.dtb_walker_cache.blockedCycles::no_targets            0                       # number of cycles access was blocked (Cycle)
system.cpu.dtb_walker_cache.blockedCauses::no_mshrs            0                       # number of times access was blocked (Count)
system.cpu.dtb_walker_cache.blockedCauses::no_targets            0                       # number of times access was blocked (Count)
system.cpu.dtb_walker_cache.avgBlocked::no_mshrs          nan                       # average number of cycles each access was blocked ((Cycle/Count))
system.cpu.dtb_walker_cache.avgBlocked::no_targets          nan                       # average number of cycles each access was blocked ((Cycle/Count))
system.cpu.dtb_walker_cache.replacements            0                       # number of replacements (Count)
system.cpu.dtb_walker_cache.power_state.pwrStateResidencyTicks::UNDEFINED 146694530500                       # Cumulative time (in ticks) in various power states (Tick)
system.cpu.dtb_walker_cache.tags.tagsInUse            0                       # Average ticks per tags in use ((Tick/Count))
system.cpu.dtb_walker_cache.tags.totalRefs            0                       # Total number of references to valid blocks. (Count)
system.cpu.dtb_walker_cache.tags.sampledRefs            0                       # Sample count of references to valid blocks. (Count)
system.cpu.dtb_walker_cache.tags.avgRefs          nan                       # Average number of references to valid blocks. ((Count/Count))
system.cpu.dtb_walker_cache.tags.warmupTick            0                       # The tick when the warmup percentage was hit. (Tick)
system.cpu.dtb_walker_cache.tags.tagAccesses            0                       # Number of tag accesses (Count)
system.cpu.dtb_walker_cache.tags.dataAccesses            0                       # Number of data accesses (Count)
system.cpu.dtb_walker_cache.tags.power_state.pwrStateResidencyTicks::UNDEFINED 146694530500                       # Cumulative time (in ticks) in various power states (Tick)
system.cpu.fetch.icacheStallCycles             449009                       # Number of cycles fetch is stalled on an Icache miss (Cycle)
system.cpu.fetch.insts                      104618093                       # Number of instructions fetch has processed (Count)
system.cpu.fetch.branches                    16569303                       # Number of branches that fetch encountered (Count)
system.cpu.fetch.predictedBranches           16518177                       # Number of branches that fetch has predicted taken (Count)
system.cpu.fetch.cycles                     292854075                       # Number of cycles fetch has run and was not squashing or blocked (Cycle)
system.cpu.fetch.squashCycles                   98780                       # Number of cycles fetch has spent squashing (Cycle)
system.cpu.fetch.miscStallCycles                  261                       # Number of cycles fetch has spent waiting on interrupts, or bad addresses, or out of MSHRs (Cycle)
system.cpu.fetch.icacheWaitRetryStallCycles          137                       # Number of stall cycles due to full MSHR (Cycle)
system.cpu.fetch.cacheLines                    439918                       # Number of cache lines fetched (Count)
system.cpu.fetch.icacheSquashes                  2426                       # Number of outstanding Icache misses that were squashed (Count)
system.cpu.fetch.nisnDist::samples          293352872                       # Number of instructions fetched each cycle (Total) (Count)
system.cpu.fetch.nisnDist::mean              0.356629                       # Number of instructions fetched each cycle (Total) (Count)
system.cpu.fetch.nisnDist::stdev             1.303086                       # Number of instructions fetched each cycle (Total) (Count)
system.cpu.fetch.nisnDist::underflows               0      0.00%      0.00% # Number of instructions fetched each cycle (Total) (Count)
system.cpu.fetch.nisnDist::0                269656997     91.92%     91.92% # Number of instructions fetched each cycle (Total) (Count)
system.cpu.fetch.nisnDist::1                    70134      0.02%     91.95% # Number of instructions fetched each cycle (Total) (Count)
system.cpu.fetch.nisnDist::2                  6425089      2.19%     94.14% # Number of instructions fetched each cycle (Total) (Count)
system.cpu.fetch.nisnDist::3                    23619      0.01%     94.14% # Number of instructions fetched each cycle (Total) (Count)
system.cpu.fetch.nisnDist::4                  6390747      2.18%     96.32% # Number of instructions fetched each cycle (Total) (Count)
system.cpu.fetch.nisnDist::5                    20758      0.01%     96.33% # Number of instructions fetched each cycle (Total) (Count)
system.cpu.fetch.nisnDist::6                 10073068      3.43%     99.76% # Number of instructions fetched each cycle (Total) (Count)
system.cpu.fetch.nisnDist::7                    17942      0.01%     99.77% # Number of instructions fetched each cycle (Total) (Count)
system.cpu.fetch.nisnDist::8                   674518      0.23%    100.00% # Number of instructions fetched each cycle (Total) (Count)
system.cpu.fetch.nisnDist::overflows                0      0.00%    100.00% # Number of instructions fetched each cycle (Total) (Count)
system.cpu.fetch.nisnDist::min_value                0                       # Number of instructions fetched each cycle (Total) (Count)
system.cpu.fetch.nisnDist::max_value                8                       # Number of instructions fetched each cycle (Total) (Count)
system.cpu.fetch.nisnDist::total            293352872                       # Number of instructions fetched each cycle (Total) (Count)
system.cpu.fetch.branchRate                  0.056476                       # Number of branch fetches per cycle (Ratio)
system.cpu.fetch.rate                        0.356585                       # Number of inst fetches per cycle ((Count/Cycle))
system.cpu.icache.demandHits::cpu.inst         439355                       # number of demand (read+write) hits (Count)
system.cpu.icache.demandHits::total            439355                       # number of demand (read+write) hits (Count)
system.cpu.icache.overallHits::cpu.inst        439355                       # number of overall hits (Count)
system.cpu.icache.overallHits::total           439355                       # number of overall hits (Count)
system.cpu.icache.demandMisses::cpu.inst          562                       # number of demand (read+write) misses (Count)
system.cpu.icache.demandMisses::total             562                       # number of demand (read+write) misses (Count)
system.cpu.icache.overallMisses::cpu.inst          562                       # number of overall misses (Count)
system.cpu.icache.overallMisses::total            562                       # number of overall misses (Count)
system.cpu.icache.demandMissLatency::cpu.inst     49966000                       # number of demand (read+write) miss ticks (Tick)
system.cpu.icache.demandMissLatency::total     49966000                       # number of demand (read+write) miss ticks (Tick)
system.cpu.icache.overallMissLatency::cpu.inst     49966000                       # number of overall miss ticks (Tick)
system.cpu.icache.overallMissLatency::total     49966000                       # number of overall miss ticks (Tick)
system.cpu.icache.demandAccesses::cpu.inst       439917                       # number of demand (read+write) accesses (Count)
system.cpu.icache.demandAccesses::total        439917                       # number of demand (read+write) accesses (Count)
system.cpu.icache.overallAccesses::cpu.inst       439917                       # number of overall (read+write) accesses (Count)
system.cpu.icache.overallAccesses::total       439917                       # number of overall (read+write) accesses (Count)
system.cpu.icache.demandMissRate::cpu.inst     0.001278                       # miss rate for demand accesses (Ratio)
system.cpu.icache.demandMissRate::total      0.001278                       # miss rate for demand accesses (Ratio)
system.cpu.icache.overallMissRate::cpu.inst     0.001278                       # miss rate for overall accesses (Ratio)
system.cpu.icache.overallMissRate::total     0.001278                       # miss rate for overall accesses (Ratio)
system.cpu.icache.demandAvgMissLatency::cpu.inst 88907.473310                       # average overall miss latency ((Cycle/Count))
system.cpu.icache.demandAvgMissLatency::total 88907.473310                       # average overall miss latency ((Cycle/Count))
system.cpu.icache.overallAvgMissLatency::cpu.inst 88907.473310                       # average overall miss latency ((Cycle/Count))
system.cpu.icache.overallAvgMissLatency::total 88907.473310                       # average overall miss latency ((Cycle/Count))
system.cpu.icache.blockedCycles::no_mshrs         1559                       # number of cycles access was blocked (Cycle)
system.cpu.icache.blockedCycles::no_targets            0                       # number of cycles access was blocked (Cycle)
system.cpu.icache.blockedCauses::no_mshrs           10                       # number of times access was blocked (Count)
system.cpu.icache.blockedCauses::no_targets            0                       # number of times access was blocked (Count)
system.cpu.icache.avgBlocked::no_mshrs     155.900000                       # average number of cycles each access was blocked ((Cycle/Count))
system.cpu.icache.avgBlocked::no_targets          nan                       # average number of cycles each access was blocked ((Cycle/Count))
system.cpu.icache.writebacks::writebacks           22                       # number of writebacks (Count)
system.cpu.icache.writebacks::total                22                       # number of writebacks (Count)
system.cpu.icache.demandMshrHits::cpu.inst          133                       # number of demand (read+write) MSHR hits (Count)
system.cpu.icache.demandMshrHits::total           133                       # number of demand (read+write) MSHR hits (Count)
system.cpu.icache.overallMshrHits::cpu.inst          133                       # number of overall MSHR hits (Count)
system.cpu.icache.overallMshrHits::total          133                       # number of overall MSHR hits (Count)
system.cpu.icache.demandMshrMisses::cpu.inst          429                       # number of demand (read+write) MSHR misses (Count)
system.cpu.icache.demandMshrMisses::total          429                       # number of demand (read+write) MSHR misses (Count)
system.cpu.icache.overallMshrMisses::cpu.inst          429                       # number of overall MSHR misses (Count)
system.cpu.icache.overallMshrMisses::total          429                       # number of overall MSHR misses (Count)
system.cpu.icache.demandMshrMissLatency::cpu.inst     39869500                       # number of demand (read+write) MSHR miss ticks (Tick)
system.cpu.icache.demandMshrMissLatency::total     39869500                       # number of demand (read+write) MSHR miss ticks (Tick)
system.cpu.icache.overallMshrMissLatency::cpu.inst     39869500                       # number of overall MSHR miss ticks (Tick)
system.cpu.icache.overallMshrMissLatency::total     39869500                       # number of overall MSHR miss ticks (Tick)
system.cpu.icache.demandMshrMissRate::cpu.inst     0.000975                       # mshr miss ratio for demand accesses (Ratio)
system.cpu.icache.demandMshrMissRate::total     0.000975                       # mshr miss ratio for demand accesses (Ratio)
system.cpu.icache.overallMshrMissRate::cpu.inst     0.000975                       # mshr miss ratio for overall accesses (Ratio)
system.cpu.icache.overallMshrMissRate::total     0.000975                       # mshr miss ratio for overall accesses (Ratio)
system.cpu.icache.demandAvgMshrMissLatency::cpu.inst 92935.897436                       # average overall mshr miss latency ((Cycle/Count))
system.cpu.icache.demandAvgMshrMissLatency::total 92935.897436                       # average overall mshr miss latency ((Cycle/Count))
system.cpu.icache.overallAvgMshrMissLatency::cpu.inst 92935.897436                       # average overall mshr miss latency ((Cycle/Count))
system.cpu.icache.overallAvgMshrMissLatency::total 92935.897436                       # average overall mshr miss latency ((Cycle/Count))
system.cpu.icache.replacements                     22                       # number of replacements (Count)
system.cpu.icache.ReadReq.hits::cpu.inst       439355                       # number of ReadReq hits (Count)
system.cpu.icache.ReadReq.hits::total          439355                       # number of ReadReq hits (Count)
system.cpu.icache.ReadReq.misses::cpu.inst          562                       # number of ReadReq misses (Count)
system.cpu.icache.ReadReq.misses::total           562                       # number of ReadReq misses (Count)
system.cpu.icache.ReadReq.missLatency::cpu.inst     49966000                       # number of ReadReq miss ticks (Tick)
system.cpu.icache.ReadReq.missLatency::total     49966000                       # number of ReadReq miss ticks (Tick)
system.cpu.icache.ReadReq.accesses::cpu.inst       439917                       # number of ReadReq accesses(hits+misses) (Count)
system.cpu.icache.ReadReq.accesses::total       439917                       # number of ReadReq accesses(hits+misses) (Count)
system.cpu.icache.ReadReq.missRate::cpu.inst     0.001278                       # miss rate for ReadReq accesses (Ratio)
system.cpu.icache.ReadReq.missRate::total     0.001278                       # miss rate for ReadReq accesses (Ratio)
system.cpu.icache.ReadReq.avgMissLatency::cpu.inst 88907.473310                       # average ReadReq miss latency ((Tick/Count))
system.cpu.icache.ReadReq.avgMissLatency::total 88907.473310                       # average ReadReq miss latency ((Tick/Count))
system.cpu.icache.ReadReq.mshrHits::cpu.inst          133                       # number of ReadReq MSHR hits (Count)
system.cpu.icache.ReadReq.mshrHits::total          133                       # number of ReadReq MSHR hits (Count)
system.cpu.icache.ReadReq.mshrMisses::cpu.inst          429                       # number of ReadReq MSHR misses (Count)
system.cpu.icache.ReadReq.mshrMisses::total          429                       # number of ReadReq MSHR misses (Count)
system.cpu.icache.ReadReq.mshrMissLatency::cpu.inst     39869500                       # number of ReadReq MSHR miss ticks (Tick)
system.cpu.icache.ReadReq.mshrMissLatency::total     39869500                       # number of ReadReq MSHR miss ticks (Tick)
system.cpu.icache.ReadReq.mshrMissRate::cpu.inst     0.000975                       # mshr miss rate for ReadReq accesses (Ratio)
system.cpu.icache.ReadReq.mshrMissRate::total     0.000975                       # mshr miss rate for ReadReq accesses (Ratio)
system.cpu.icache.ReadReq.avgMshrMissLatency::cpu.inst 92935.897436                       # average ReadReq mshr miss latency ((Tick/Count))
system.cpu.icache.ReadReq.avgMshrMissLatency::total 92935.897436                       # average ReadReq mshr miss latency ((Tick/Count))
system.cpu.icache.power_state.pwrStateResidencyTicks::UNDEFINED 146694530500                       # Cumulative time (in ticks) in various power states (Tick)
system.cpu.icache.tags.tagsInUse           301.830546                       # Average ticks per tags in use ((Tick/Count))
system.cpu.icache.tags.totalRefs               439784                       # Total number of references to valid blocks. (Count)
system.cpu.icache.tags.sampledRefs                429                       # Sample count of references to valid blocks. (Count)
system.cpu.icache.tags.avgRefs            1025.137529                       # Average number of references to valid blocks. ((Count/Count))
system.cpu.icache.tags.warmupTick               87500                       # The tick when the warmup percentage was hit. (Tick)
system.cpu.icache.tags.occupancies::cpu.inst   301.830546                       # Average occupied blocks per tick, per requestor ((Count/Tick))
system.cpu.icache.tags.avgOccs::cpu.inst     0.589513                       # Average percentage of cache occupancy ((Ratio/Tick))
system.cpu.icache.tags.avgOccs::total        0.589513                       # Average percentage of cache occupancy ((Ratio/Tick))
system.cpu.icache.tags.occupanciesTaskId::1024          407                       # Occupied blocks per task id (Count)
system.cpu.icache.tags.ageTaskId_1024::4          407                       # Occupied blocks per task id, per block age (Count)
system.cpu.icache.tags.ratioOccsTaskId::1024     0.794922                       # Ratio of occupied blocks and all blocks, per task id (Ratio)
system.cpu.icache.tags.tagAccesses            3519765                       # Number of tag accesses (Count)
system.cpu.icache.tags.dataAccesses           3519765                       # Number of data accesses (Count)
system.cpu.icache.tags.power_state.pwrStateResidencyTicks::UNDEFINED 146694530500                       # Cumulative time (in ticks) in various power states (Tick)
system.cpu.itb_walker_cache.blockedCycles::no_mshrs            0                       # number of cycles access was blocked (Cycle)
system.cpu.itb_walker_cache.blockedCycles::no_targets            0                       # number of cycles access was blocked (Cycle)
system.cpu.itb_walker_cache.blockedCauses::no_mshrs            0                       # number of times access was blocked (Count)
system.cpu.itb_walker_cache.blockedCauses::no_targets            0                       # number of times access was blocked (Count)
system.cpu.itb_walker_cache.avgBlocked::no_mshrs          nan                       # average number of cycles each access was blocked ((Cycle/Count))
system.cpu.itb_walker_cache.avgBlocked::no_targets          nan                       # average number of cycles each access was blocked ((Cycle/Count))
system.cpu.itb_walker_cache.replacements            0                       # number of replacements (Count)
system.cpu.itb_walker_cache.power_state.pwrStateResidencyTicks::UNDEFINED 146694530500                       # Cumulative time (in ticks) in various power states (Tick)
system.cpu.itb_walker_cache.tags.tagsInUse            0                       # Average ticks per tags in use ((Tick/Count))
system.cpu.itb_walker_cache.tags.totalRefs            0                       # Total number of references to valid blocks. (Count)
system.cpu.itb_walker_cache.tags.sampledRefs            0                       # Sample count of references to valid blocks. (Count)
system.cpu.itb_walker_cache.tags.avgRefs          nan                       # Average number of references to valid blocks. ((Count/Count))
system.cpu.itb_walker_cache.tags.warmupTick            0                       # The tick when the warmup percentage was hit. (Tick)
system.cpu.itb_walker_cache.tags.tagAccesses            0                       # Number of tag accesses (Count)
system.cpu.itb_walker_cache.tags.dataAccesses            0                       # Number of data accesses (Count)
system.cpu.itb_walker_cache.tags.power_state.pwrStateResidencyTicks::UNDEFINED 146694530500                       # Cumulative time (in ticks) in various power states (Tick)
system.cpu.lsq0.forwLoads                      165797                       # Number of loads that had data forwarded from stores (Count)
system.cpu.lsq0.squashedLoads                   42585                       # Number of loads squashed (Count)
system.cpu.lsq0.ignoredResponses                  120                       # Number of memory responses ignored because the instruction is squashed (Count)
system.cpu.lsq0.memOrderViolation                 120                       # Number of memory ordering violations (Count)
system.cpu.lsq0.squashedStores                1458848                       # Number of stores squashed (Count)
system.cpu.lsq0.rescheduledLoads                    0                       # Number of loads that were rescheduled (Count)
system.cpu.lsq0.blockedByCache                    620                       # Number of times an access to memory failed due to the cache being blocked (Count)
system.cpu.lsq0.loadToUse::samples            1305861                       # Distribution of cycle latency between the first time a load is issued and its completion (Unspecified)
system.cpu.lsq0.loadToUse::mean              3.654230                       # Distribution of cycle latency between the first time a load is issued and its completion (Unspecified)
system.cpu.lsq0.loadToUse::stdev            10.898677                       # Distribution of cycle latency between the first time a load is issued and its completion (Unspecified)
system.cpu.lsq0.loadToUse::0-9                1301362     99.66%     99.66% # Distribution of cycle latency between the first time a load is issued and its completion (Unspecified)
system.cpu.lsq0.loadToUse::10-19                   34      0.00%     99.66% # Distribution of cycle latency between the first time a load is issued and its completion (Unspecified)
system.cpu.lsq0.loadToUse::20-29                   54      0.00%     99.66% # Distribution of cycle latency between the first time a load is issued and its completion (Unspecified)
system.cpu.lsq0.loadToUse::30-39                   10      0.00%     99.66% # Distribution of cycle latency between the first time a load is issued and its completion (Unspecified)
system.cpu.lsq0.loadToUse::40-49                   27      0.00%     99.67% # Distribution of cycle latency between the first time a load is issued and its completion (Unspecified)
system.cpu.lsq0.loadToUse::50-59                  126      0.01%     99.67% # Distribution of cycle latency between the first time a load is issued and its completion (Unspecified)
system.cpu.lsq0.loadToUse::60-69                  158      0.01%     99.69% # Distribution of cycle latency between the first time a load is issued and its completion (Unspecified)
system.cpu.lsq0.loadToUse::70-79                  173      0.01%     99.70% # Distribution of cycle latency between the first time a load is issued and its completion (Unspecified)
system.cpu.lsq0.loadToUse::80-89                   50      0.00%     99.70% # Distribution of cycle latency between the first time a load is issued and its completion (Unspecified)
system.cpu.lsq0.loadToUse::100-109                847      0.06%     99.77% # Distribution of cycle latency between the first time a load is issued and its completion (Unspecified)
system.cpu.lsq0.loadToUse::110-119               1389      0.11%     99.88% # Distribution of cycle latency between the first time a load is issued and its completion (Unspecified)
system.cpu.lsq0.loadToUse::120-129                 31      0.00%     99.88% # Distribution of cycle latency between the first time a load is issued and its completion (Unspecified)
system.cpu.lsq0.loadToUse::130-139                272      0.02%     99.90% # Distribution of cycle latency between the first time a load is issued and its completion (Unspecified)
system.cpu.lsq0.loadToUse::140-149                366      0.03%     99.93% # Distribution of cycle latency between the first time a load is issued and its completion (Unspecified)
[...]
system.mem_ctrls.dram.perBankWrBursts::9       243124                       # Per bank write bursts (Count)
system.mem_ctrls.dram.perBankWrBursts::10       243080                       # Per bank write bursts (Count)
system.mem_ctrls.dram.perBankWrBursts::11       242881                       # Per bank write bursts (Count)
system.mem_ctrls.dram.perBankWrBursts::12       242965                       # Per bank write bursts (Count)
system.mem_ctrls.dram.perBankWrBursts::13       243023                       # Per bank write bursts (Count)
system.mem_ctrls.dram.perBankWrBursts::14       243090                       # Per bank write bursts (Count)
system.mem_ctrls.dram.perBankWrBursts::15       243138                       # Per bank write bursts (Count)
system.mem_ctrls.dram.totQLat            117124226500                       # Total ticks spent queuing (Tick)
system.mem_ctrls.dram.totBusLat           19614550000                       # Total ticks spent in databus transfers (Tick)
system.mem_ctrls.dram.totMemAccLat       190678789000                       # Total ticks spent from burst creation until serviced by the DRAM (Tick)
system.mem_ctrls.dram.avgQLat                29856.47                       # Average queueing delay per DRAM burst ((Tick/Count))
system.mem_ctrls.dram.avgBusLat               5000.00                       # Average bus latency per DRAM burst ((Tick/Count))
system.mem_ctrls.dram.avgMemAccLat           48606.47                       # Average memory access latency per DRAM burst ((Tick/Count))
system.mem_ctrls.dram.readRowHits             3575548                       # Number of row buffer hits during reads (Count)
system.mem_ctrls.dram.writeRowHits            3613717                       # Number of row buffer hits during writes (Count)
system.mem_ctrls.dram.readRowHitRate            91.15                       # Row buffer hit rate for reads (Ratio)
system.mem_ctrls.dram.writeRowHitRate           92.91                       # Row buffer hit rate for writes (Ratio)
system.mem_ctrls.dram.bytesPerActivate::samples       623238                       # Bytes accessed per row activation (Byte)
system.mem_ctrls.dram.bytesPerActivate::mean   802.261531                       # Bytes accessed per row activation (Byte)
system.mem_ctrls.dram.bytesPerActivate::gmean   663.513006                       # Bytes accessed per row activation (Byte)
system.mem_ctrls.dram.bytesPerActivate::stdev   332.727564                       # Bytes accessed per row activation (Byte)
system.mem_ctrls.dram.bytesPerActivate::0-127        15466      2.48%      2.48% # Bytes accessed per row activation (Byte)
system.mem_ctrls.dram.bytesPerActivate::128-255        75705     12.15%     14.63% # Bytes accessed per row activation (Byte)
system.mem_ctrls.dram.bytesPerActivate::256-383        14622      2.35%     16.97% # Bytes accessed per row activation (Byte)
system.mem_ctrls.dram.bytesPerActivate::384-511        28614      4.59%     21.57% # Bytes accessed per row activation (Byte)
system.mem_ctrls.dram.bytesPerActivate::512-639        20271      3.25%     24.82% # Bytes accessed per row activation (Byte)
system.mem_ctrls.dram.bytesPerActivate::640-767        11510      1.85%     26.67% # Bytes accessed per row activation (Byte)
system.mem_ctrls.dram.bytesPerActivate::768-895        27564      4.42%     31.09% # Bytes accessed per row activation (Byte)
system.mem_ctrls.dram.bytesPerActivate::896-1023       129976     20.85%     51.94% # Bytes accessed per row activation (Byte)
system.mem_ctrls.dram.bytesPerActivate::1024-1151       299510     48.06%    100.00% # Bytes accessed per row activation (Byte)
system.mem_ctrls.dram.bytesPerActivate::total       623238                       # Bytes accessed per row activation (Byte)
system.mem_ctrls.dram.bytesRead             251066240                       # Total number of bytes read from DRAM (Byte)
system.mem_ctrls.dram.bytesWritten          248934016                       # Total number of bytes written to DRAM (Byte)
system.mem_ctrls.dram.avgRdBW             1711.490123                       # Average DRAM read bandwidth in MiBytes/s ((Byte/Second))
system.mem_ctrls.dram.avgWrBW             1696.954993                       # Average DRAM write bandwidth in MiBytes/s ((Byte/Second))
system.mem_ctrls.dram.peakBW                 12800.00                       # Theoretical peak bandwidth in MiByte/s ((Byte/Second))
system.mem_ctrls.dram.busUtil                   26.63                       # Data bus utilization in percentage (Ratio)
system.mem_ctrls.dram.busUtilRead               13.37                       # Data bus utilization in percentage for reads (Ratio)
system.mem_ctrls.dram.busUtilWrite              13.26                       # Data bus utilization in percentage for writes (Ratio)
system.mem_ctrls.dram.pageHitRate               92.02                       # Row buffer hit rate, read and write combined (Ratio)
system.mem_ctrls.dram.power_state.pwrStateResidencyTicks::UNDEFINED 146694530500                       # Cumulative time (in ticks) in various power states (Tick)
system.mem_ctrls.dram.rank0.actEnergy      2223795840                       # Energy for activate commands per rank (pJ) (Joule)
system.mem_ctrls.dram.rank0.preEnergy      1181975520                       # Energy for precharge commands per rank (pJ) (Joule)
system.mem_ctrls.dram.rank0.readEnergy    14007252000                       # Energy for read commands per rank (pJ) (Joule)
system.mem_ctrls.dram.rank0.writeEnergy   10153949220                       # Energy for write commands per rank (pJ) (Joule)
system.mem_ctrls.dram.rank0.refreshEnergy 11579817600.000002                       # Energy for refresh commands per rank (pJ) (Joule)
system.mem_ctrls.dram.rank0.actBackEnergy  37695530130                       # Energy for active background per rank (pJ) (Joule)
system.mem_ctrls.dram.rank0.preBackEnergy  24587095680                       # Energy for precharge background per rank (pJ) (Joule)
system.mem_ctrls.dram.rank0.actPowerDownEnergy            0                       # Energy for active power-down per rank (pJ) (Joule)
system.mem_ctrls.dram.rank0.prePowerDownEnergy            0                       # Energy for precharge power-down per rank (pJ) (Joule)
system.mem_ctrls.dram.rank0.selfRefreshEnergy            0                       # Energy for self refresh per rank (pJ) (Joule)
system.mem_ctrls.dram.rank0.totalEnergy  101429415990                       # Total energy per rank (pJ) (Joule)
system.mem_ctrls.dram.rank0.averagePower   691.432841                       # Core power per rank (mW) (Watt)
system.mem_ctrls.dram.rank0.totalIdleTime            0                       # Total Idle time Per DRAM Rank (Tick)
system.mem_ctrls.dram.rank0.pwrStateTime::IDLE  62344107750                       # Time in different power states (Tick)
system.mem_ctrls.dram.rank0.pwrStateTime::REF   4898400000                       # Time in different power states (Tick)
system.mem_ctrls.dram.rank0.pwrStateTime::SREF            0                       # Time in different power states (Tick)
system.mem_ctrls.dram.rank0.pwrStateTime::PRE_PDN            0                       # Time in different power states (Tick)
system.mem_ctrls.dram.rank0.pwrStateTime::ACT  79452022750                       # Time in different power states (Tick)
system.mem_ctrls.dram.rank0.pwrStateTime::ACT_PDN            0                       # Time in different power states (Tick)
system.mem_ctrls.dram.rank1.actEnergy      2226130620                       # Energy for activate commands per rank (pJ) (Joule)
system.mem_ctrls.dram.rank1.preEnergy      1183212690                       # Energy for precharge commands per rank (pJ) (Joule)
system.mem_ctrls.dram.rank1.readEnergy    14002325400                       # Energy for read commands per rank (pJ) (Joule)
system.mem_ctrls.dram.rank1.writeEnergy   10149731460                       # Energy for write commands per rank (pJ) (Joule)
system.mem_ctrls.dram.rank1.refreshEnergy 11579817600.000002                       # Energy for refresh commands per rank (pJ) (Joule)
system.mem_ctrls.dram.rank1.actBackEnergy  37696517940                       # Energy for active background per rank (pJ) (Joule)
system.mem_ctrls.dram.rank1.preBackEnergy  24586263840                       # Energy for precharge background per rank (pJ) (Joule)
system.mem_ctrls.dram.rank1.actPowerDownEnergy            0                       # Energy for active power-down per rank (pJ) (Joule)
system.mem_ctrls.dram.rank1.prePowerDownEnergy            0                       # Energy for precharge power-down per rank (pJ) (Joule)
system.mem_ctrls.dram.rank1.selfRefreshEnergy            0                       # Energy for self refresh per rank (pJ) (Joule)
system.mem_ctrls.dram.rank1.totalEnergy  101423999550                       # Total energy per rank (pJ) (Joule)
system.mem_ctrls.dram.rank1.averagePower   691.395918                       # Core power per rank (mW) (Watt)
system.mem_ctrls.dram.rank1.totalIdleTime            0                       # Total Idle time Per DRAM Rank (Tick)
system.mem_ctrls.dram.rank1.pwrStateTime::IDLE  62343204750                       # Time in different power states (Tick)
system.mem_ctrls.dram.rank1.pwrStateTime::REF   4898400000                       # Time in different power states (Tick)
system.mem_ctrls.dram.rank1.pwrStateTime::SREF            0                       # Time in different power states (Tick)
system.mem_ctrls.dram.rank1.pwrStateTime::PRE_PDN            0                       # Time in different power states (Tick)
system.mem_ctrls.dram.rank1.pwrStateTime::ACT  79452925750                       # Time in different power states (Tick)
system.mem_ctrls.dram.rank1.pwrStateTime::ACT_PDN            0                       # Time in different power states (Tick)
system.mem_ctrls.power_state.pwrStateResidencyTicks::UNDEFINED 146694530500                       # Cumulative time (in ticks) in various power states (Tick)
system.membus.transDist::ReadResp                 554                       # Transaction distribution (Count)
system.membus.transDist::WritebackDirty       3889618                       # Transaction distribution (Count)
system.membus.transDist::CleanEvict               117                       # Transaction distribution (Count)
system.membus.transDist::ReadExReq            3922356                       # Transaction distribution (Count)
system.membus.transDist::ReadExResp           3922356                       # Transaction distribution (Count)
system.membus.transDist::ReadSharedReq            554                       # Transaction distribution (Count)
system.membus.pktCount_system.l2.mem_side_port::system.mem_ctrls.port     11735555                       # Packet count per connected requestor and responder (Count)
system.membus.pktCount::total                11735555                       # Packet count per connected requestor and responder (Count)
system.membus.pktSize_system.l2.mem_side_port::system.mem_ctrls.port    500001792                       # Cumulative packet size per connected requestor and responder (Byte)
system.membus.pktSize::total                500001792                       # Cumulative packet size per connected requestor and responder (Byte)
system.membus.snoops                                0                       # Total snoops (Count)
system.membus.snoopTraffic                          0                       # Total snoop traffic (Byte)
system.membus.snoopFanout::samples            3922910                       # Request fanout histogram (Count)
system.membus.snoopFanout::mean                     0                       # Request fanout histogram (Count)
system.membus.snoopFanout::stdev                    0                       # Request fanout histogram (Count)
system.membus.snoopFanout::underflows               0      0.00%      0.00% # Request fanout histogram (Count)
system.membus.snoopFanout::0                  3922910    100.00%    100.00% # Request fanout histogram (Count)
system.membus.snoopFanout::1                        0      0.00%    100.00% # Request fanout histogram (Count)
system.membus.snoopFanout::overflows                0      0.00%    100.00% # Request fanout histogram (Count)
system.membus.snoopFanout::min_value                0                       # Request fanout histogram (Count)
system.membus.snoopFanout::max_value                0                       # Request fanout histogram (Count)
system.membus.snoopFanout::total              3922910                       # Request fanout histogram (Count)
system.membus.power_state.pwrStateResidencyTicks::UNDEFINED 146694530500                       # Cumulative time (in ticks) in various power states (Tick)
system.membus.reqLayer0.occupancy         24982983500                       # Layer occupancy (ticks) (Tick)
system.membus.reqLayer0.utilization               0.2                       # Layer utilization (Ratio)
system.membus.respLayer1.occupancy        20086696500                       # Layer occupancy (ticks) (Tick)
system.membus.respLayer1.utilization              0.1                       # Layer utilization (Ratio)
system.membus.snoop_filter.totRequests        7812645                       # Total number of requests made to the snoop filter. (Count)
system.membus.snoop_filter.hitSingleRequests      3889735                       # Number of requests hitting in the snoop filter with a single holder of the requested data. (Count)
system.membus.snoop_filter.hitMultiRequests            0                       # Number of requests hitting in the snoop filter with multiple (>1) holders of the requested data. (Count)
system.membus.snoop_filter.totSnoops                0                       # Total number of snoops made to the snoop filter. (Count)
system.membus.snoop_filter.hitSingleSnoops            0                       # Number of snoops hitting in the snoop filter with a single holder of the requested data. (Count)
system.membus.snoop_filter.hitMultiSnoops            0                       # Number of snoops hitting in the snoop filter with multiple (>1) holders of the requested data. (Count)
system.tol2bus.transDist::ReadResp                559                       # Transaction distribution (Count)
system.tol2bus.transDist::WritebackDirty      7811165                       # Transaction distribution (Count)
system.tol2bus.transDist::WritebackClean           22                       # Transaction distribution (Count)
system.tol2bus.transDist::CleanEvict              645                       # Transaction distribution (Count)
system.tol2bus.transDist::ReadExReq           3922543                       # Transaction distribution (Count)
system.tol2bus.transDist::ReadExResp          3922541                       # Transaction distribution (Count)
system.tol2bus.transDist::ReadCleanReq            429                       # Transaction distribution (Count)
system.tol2bus.transDist::ReadSharedReq           130                       # Transaction distribution (Count)
system.tol2bus.pktCount_system.cpu.icache.mem_side_port::system.l2.cpu_side_port          880                       # Packet count per connected requestor and responder (Count)
system.tol2bus.pktCount_system.cpu.dcache.mem_side_port::system.l2.cpu_side_port     11766991                       # Packet count per connected requestor and responder (Count)
system.tol2bus.pktCount::total               11767871                       # Packet count per connected requestor and responder (Count)
system.tol2bus.pktSize_system.cpu.icache.mem_side_port::system.l2.cpu_side_port        28864                       # Cumulative packet size per connected requestor and responder (Byte)
system.tol2bus.pktSize_system.cpu.dcache.mem_side_port::system.l2.cpu_side_port    502029952                       # Cumulative packet size per connected requestor and responder (Byte)
system.tol2bus.pktSize::total               502058816                       # Cumulative packet size per connected requestor and responder (Byte)
system.tol2bus.snoops                         3890163                       # Total snoops (Count)
system.tol2bus.snoopTraffic                 248935552                       # Total snoop traffic (Byte)
system.tol2bus.snoopFanout::samples           7813265                       # Request fanout histogram (Count)
system.tol2bus.snoopFanout::mean             0.000055                       # Request fanout histogram (Count)
system.tol2bus.snoopFanout::stdev            0.007410                       # Request fanout histogram (Count)
system.tol2bus.snoopFanout::underflows              0      0.00%      0.00% # Request fanout histogram (Count)
system.tol2bus.snoopFanout::0                 7812836     99.99%     99.99% # Request fanout histogram (Count)
system.tol2bus.snoopFanout::1                     429      0.01%    100.00% # Request fanout histogram (Count)
system.tol2bus.snoopFanout::2                       0      0.00%    100.00% # Request fanout histogram (Count)
system.tol2bus.snoopFanout::3                       0      0.00%    100.00% # Request fanout histogram (Count)
system.tol2bus.snoopFanout::4                       0      0.00%    100.00% # Request fanout histogram (Count)
system.tol2bus.snoopFanout::overflows               0      0.00%    100.00% # Request fanout histogram (Count)
system.tol2bus.snoopFanout::min_value               0                       # Request fanout histogram (Count)
system.tol2bus.snoopFanout::max_value               1                       # Request fanout histogram (Count)
system.tol2bus.snoopFanout::total             7813265                       # Request fanout histogram (Count)
system.tol2bus.power_state.pwrStateResidencyTicks::UNDEFINED 146694530500                       # Cumulative time (in ticks) in various power states (Tick)
system.tol2bus.reqLayer0.occupancy         7843954500                       # Layer occupancy (ticks) (Tick)
system.tol2bus.reqLayer0.utilization              0.1                       # Layer utilization (Ratio)
system.tol2bus.respLayer0.occupancy            643500                       # Layer occupancy (ticks) (Tick)
system.tol2bus.respLayer0.utilization             0.0                       # Layer utilization (Ratio)
system.tol2bus.respLayer1.occupancy        5884006500                       # Layer occupancy (ticks) (Tick)
system.tol2bus.respLayer1.utilization             0.0                       # Layer utilization (Ratio)
system.tol2bus.snoop_filter.totRequests       7844771                       # Total number of requests made to the snoop filter. (Count)
system.tol2bus.snoop_filter.hitSingleRequests      3921669                       # Number of requests hitting in the snoop filter with a single holder of the requested data. (Count)
system.tol2bus.snoop_filter.hitMultiRequests            1                       # Number of requests hitting in the snoop filter with multiple (>1) holders of the requested data. (Count)
system.tol2bus.snoop_filter.totSnoops             428                       # Total number of snoops made to the snoop filter. (Count)
system.tol2bus.snoop_filter.hitSingleSnoops          428                       # Number of snoops hitting in the snoop filter with a single holder of the requested data. (Count)
system.tol2bus.snoop_filter.hitMultiSnoops            0                       # Number of snoops hitting in the snoop filter with multiple (>1) holders of the requested data. (Count)
system.voltage_domain.voltage                       1                       # Voltage in Volts (Volt)
system.workload.inst.arm                            0                       # number of arm instructions executed (Count)
system.workload.inst.quiesce                        0                       # number of quiesce instructions executed (Count)

---------- End Simulation Statistics   ----------
